data_str_m4_o14_o24_f0_acs.sym.190
_audit_creation_date              2013-03-05T15:42:41-0500
_audit_creation_method            fapswitch 2.2
_symmetry_space_group_name_H-M    P1
_symmetry_Int_Tables_number       1
_space_group_crystal_system       triclinic
_cell_length_a                    19.119283
_cell_length_b                    11.005606
_cell_length_c                    18.590456
_cell_angle_alpha                 90.046666
_cell_angle_beta                  90.495095
_cell_angle_gamma                 89.84018
_cell_volume                      3911.62817782

loop_
_atom_site_label
_atom_site_type_symbol
_atom_site_description
_atom_site_fract_x
_atom_site_fract_y
_atom_site_fract_z
_atom_type_partial_charge
O1    O     O_R   0.788190 0.043000 0.172520 -0.526883
O2    O     O_R   0.211810 0.043000 0.827480 -0.528066
O3    O     O_R   0.288190 0.543000 0.172520 -0.542916
O4    O     O_R   0.711810 0.543000 0.827480 -0.530165
O5    O     O_R   0.766240 0.292300 0.176860 -0.504995
O6    O     O_R   0.233760 0.292300 0.823140 -0.504526
O7    O     O_R   0.266240 0.792300 0.176860 -0.510492
O8    O     O_R   0.733760 0.792300 0.823140 -0.504305
C1    C     C_R   0.730418 0.375576 0.146004 0.548220
C2    C     C_R   0.271267 0.371429 0.855943 0.554643
C3    C     C_R   0.214629 0.833855 0.138598 0.563822
C4    C     C_R   0.770676 0.873450 0.855060 0.544802
O9    O     O_R   0.670310 0.409160 0.168720 -0.518594
O10   O     O_R   0.329690 0.409160 0.831280 -0.512674
O11   O     O_R   0.170310 0.909160 0.168720 -0.501329
O12   O     O_R   0.829690 0.909160 0.831280 -0.520438
O13   O     O_R   0.556160 0.251900 0.173380 -0.509155
O14   O     O_R   0.443840 0.251900 0.826620 -0.504872
O15   O     O_R   0.056160 0.751900 0.173380 -0.519269
O16   O     O_R   0.943840 0.751900 0.826620 -0.511120
C5    C     C_R   0.531670 0.155734 0.145005 0.538435
C6    C     C_R   0.467380 0.155404 0.855636 0.555020
C7    C     C_R   0.031411 0.655809 0.145138 0.548300
C8    C     C_R   0.966866 0.655204 0.855892 0.537514
O17   O     O_R   0.545410 0.050140 0.168240 -0.519837
O18   O     O_R   0.454590 0.050140 0.831760 -0.513271
O19   O     O_R   0.045410 0.550140 0.168240 -0.508149
O20   O     O_R   0.954590 0.550140 0.831760 -0.525215
O21   O     O_R   0.681530 0.958350 0.176970 -0.509290
O22   O     O_R   0.318470 0.958350 0.823030 -0.500306
O23   O     O_R   0.181530 0.458350 0.176970 -0.499743
O24   O     O_R   0.818470 0.458350 0.823030 -0.506648
C9    C     C_R   0.743021 0.965050 0.150770 0.530133
C10   C     C_R   0.256338 0.964313 0.848490 0.543349
C11   C     C_R   0.243346 0.464132 0.151278 0.537683
C12   C     C_R   0.757141 0.466492 0.849908 0.528011
O25   O     O_R   0.788610 0.044480 0.334450 -0.534971
O26   O     O_R   0.211390 0.044480 0.665550 -0.554733
O27   O     O_R   0.288610 0.544480 0.334450 -0.554186
O28   O     O_R   0.711390 0.544480 0.665550 -0.534022
O29   O     O_R   0.766630 0.293670 0.326970 -0.497871
O30   O     O_R   0.233370 0.293670 0.673030 -0.498873
O31   O     O_R   0.266630 0.793670 0.326970 -0.491866
O32   O     O_R   0.733370 0.793670 0.673030 -0.497275
C13   C     C_R   0.714605 0.339489 0.362887 0.568329
C14   C     C_R   0.290240 0.330671 0.637709 0.578855
C15   C     C_R   0.209766 0.830571 0.362323 0.582453
C16   C     C_R   0.785137 0.840144 0.637131 0.568298
O33   O     O_R   0.670730 0.410640 0.330640 -0.522641
O34   O     O_R   0.329270 0.410640 0.669360 -0.474998
O35   O     O_R   0.170730 0.910640 0.330640 -0.470226
O36   O     O_R   0.829270 0.910640 0.669360 -0.522057
O37   O     O_R   0.556550 0.253260 0.323480 -0.531360
O38   O     O_R   0.443450 0.253260 0.676520 -0.531922
O39   O     O_R   0.056550 0.753260 0.323480 -0.531997
O40   O     O_R   0.943450 0.753260 0.676520 -0.530075
C17   C     C_R   0.529661 0.158682 0.350696 0.530883
C18   C     C_R   0.436216 0.152206 0.638844 0.522861
C19   C     C_R   0.063814 0.652121 0.361139 0.524339
C20   C     C_R   0.970359 0.658445 0.649322 0.531950
O41   O     O_R   0.545830 0.051610 0.330160 -0.466728
O42   O     O_R   0.454170 0.051610 0.669840 -0.509157
O43   O     O_R   0.045830 0.551610 0.330160 -0.508290
O44   O     O_R   0.954170 0.551610 0.669840 -0.466713
O45   O     O_R   0.681920 0.959720 0.327070 -0.427768
O46   O     O_R   0.318080 0.959720 0.672930 -0.491290
O47   O     O_R   0.181920 0.459720 0.327070 -0.489136
O48   O     O_R   0.818080 0.459720 0.672930 -0.427779
C21   C     C_R   0.743831 0.961635 0.351847 0.548303
C22   C     C_R   0.252924 0.958468 0.650379 0.543567
C23   C     C_R   0.247133 0.458637 0.349685 0.546060
C24   C     C_R   0.756257 0.461579 0.648114 0.549624
Cr1   Cr    Cr6+3 0.772820 0.169820 0.252640 1.008617
Cr2   Cr    Cr6+3 0.227180 0.169820 0.747360 0.985562
Cr3   Cr    Cr6+3 0.272820 0.669820 0.252640 0.978331
Cr4   Cr    Cr6+3 0.727180 0.669820 0.747360 1.009113
Cr5   Cr    Cr6+3 0.615040 0.323610 0.249150 1.009782
Cr6   Cr    Cr6+3 0.384960 0.323610 0.750850 1.012298
Cr7   Cr    Cr6+3 0.115040 0.823610 0.249150 1.008849
Cr8   Cr    Cr6+3 0.884960 0.823610 0.750850 1.007725
Cr9   Cr    Cr6+3 0.616720 0.011130 0.250660 1.080833
Cr10  Cr    Cr6+3 0.383280 0.011130 0.749340 1.036827
Cr11  Cr    Cr6+3 0.116720 0.511130 0.250660 1.034618
Cr12  Cr    Cr6+3 0.883280 0.511130 0.749340 1.079842
O49   O     O_3   0.668190 0.168190 0.250820 -0.273333
O50   O     O_3   0.331810 0.168190 0.749180 -0.296409
O51   O     O_3   0.168190 0.668190 0.250820 -0.312557
O52   O     O_3   0.831810 0.668190 0.749180 -0.273558
C25   C     C_3   0.539751 0.247661 0.968868 -0.133214
C26   C     C_3   0.484112 0.273785 0.027116 -0.122432
C27   C     C_3   0.032890 0.754190 0.969514 -0.135284
C28   C     C_3   0.976738 0.769753 0.028409 -0.129826
C29   C     C_3   0.566650 0.137503 0.012754 -0.100638
C30   C     C_3   0.431968 0.188395 0.987984 -0.115225
C31   C     C_3   0.066483 0.648343 0.012308 -0.108455
C32   C     C_3   0.929255 0.677056 0.989014 -0.108717
H1    H     H_    0.622392 0.115934 0.024533 0.128053
H2    H     H_    0.376038 0.206365 0.975738 0.129246
H3    H     H_    0.123265 0.636300 0.023461 0.117984
H4    H     H_    0.872500 0.688009 0.977455 0.126873
C33   C     C_3   0.510398 0.163337 0.069709 0.058957
C34   C     C_3   0.488157 0.162442 0.931186 0.043685
C35   C     C_3   0.009625 0.663502 0.069923 0.049838
C36   C     C_3   0.986244 0.661501 0.931723 0.054104
C37   C     C_3   0.458875 0.078390 0.031693 -0.114442
C38   C     C_3   0.514512 0.052656 0.974079 -0.104409
C39   C     C_3   0.962699 0.571170 0.031696 -0.109581
C40   C     C_3   0.019090 0.555713 0.973507 -0.101080
H5    H     H_    0.425556 0.009806 0.058516 0.130672
H6    H     H_    0.525898 0.963253 0.949782 0.141597
H7    H     H_    0.933964 0.498040 0.059416 0.127129
H8    H     H_    0.036099 0.468664 0.949271 0.135158
C41   C     C_R   0.757067 0.897946 0.931236 -0.005576
C42   C     C_R   0.228527 0.852205 0.061646 -0.005991
C43   C     C_R   0.258594 0.391486 0.933064 -0.007234
C44   C     C_R   0.747456 0.406531 0.071569 -0.008108
C45   C     C_R   0.698363 0.850490 0.968319 0.019846
C46   C     C_R   0.287459 0.804141 0.022954 0.019591
C47   C     C_R   0.200683 0.341286 0.970740 0.018206
C48   C     C_R   0.801592 0.347240 0.032434 0.019335
C49   C     C_R   0.700933 0.844802 0.044437 0.023624
C50   C     C_R   0.288517 0.818825 0.947077 0.021340
C51   C     C_R   0.203723 0.336743 0.046962 0.023697
C52   C     C_R   0.796894 0.343949 0.956322 0.025188
C53   C     C_R   0.813904 0.944616 0.044464 -0.155741
C54   C     C_R   0.181393 0.936706 0.952084 -0.157296
C55   C     C_R   0.316147 0.436162 0.046518 -0.157417
C56   C     C_R   0.692738 0.470614 0.960915 -0.157817
C57   C     C_R   0.814648 0.941124 0.971005 -0.152636
C58   C     C_R   0.174956 0.911441 0.023734 -0.159631
C59   C     C_R   0.316738 0.432517 0.972850 -0.153659
C60   C     C_R   0.694655 0.468732 0.034205 -0.151445
C61   C     C_R   0.637633 0.807418 0.932762 -0.100747
C62   C     C_R   0.345837 0.743906 0.055001 -0.096050
C63   C     C_R   0.140782 0.292757 0.936106 -0.096576
C64   C     C_R   0.859842 0.290469 0.065914 -0.091678
C65   C     C_R   0.092194 0.225132 0.974515 -0.142195
C66   C     C_R   0.906694 0.221253 0.026068 -0.135494
C67   C     C_R   0.585821 0.746591 0.970556 -0.150780
C68   C     C_R   0.398268 0.692253 0.013142 -0.148264
C69   C     C_R   0.591994 0.730962 0.044430 -0.132455
C70   C     C_R   0.393525 0.694955 0.938807 -0.125690
C71   C     C_R   0.100399 0.208736 0.048223 -0.120997
C72   C     C_R   0.897703 0.208843 0.952244 -0.129012
C73   C     C_R   0.649047 0.779072 0.081223 -0.078438
C74   C     C_R   0.338690 0.756070 0.905867 -0.071285
C75   C     C_R   0.154705 0.266262 0.084629 -0.065665
C76   C     C_R   0.843324 0.269286 0.917450 -0.075430
C77   C     C_R   0.755239 0.906116 0.081608 -0.006287
C78   C     C_R   0.239978 0.898050 0.914263 -0.001864
C79   C     C_R   0.256889 0.401098 0.083519 -0.003044
C80   C     C_R   0.745649 0.415564 0.921182 -0.006832
H9    H     H_    0.862442 0.970136 0.945706 0.150787
H10   H     H_    0.127804 0.942737 0.049909 0.144712
H11   H     H_    0.364962 0.458808 0.947414 0.154075
H12   H     H_    0.651664 0.512146 0.061536 0.152600
H13   H     H_    0.048906 0.183243 0.946504 0.101009
H14   H     H_    0.949162 0.174872 0.053014 0.099173
H15   H     H_    0.541041 0.711002 0.942061 0.108446
H16   H     H_    0.440849 0.643703 0.038704 0.091892
H17   H     H_    0.653269 0.760831 0.138264 0.139308
H18   H     H_    0.335249 0.751752 0.847820 0.153616
H19   H     H_    0.159856 0.250958 0.141942 0.152356
H20   H     H_    0.836817 0.254244 0.860274 0.138142
H21   H     H_    0.535178 0.342273 0.445616 0.157941
H22   H     H_    0.495720 0.335062 0.568968 0.149969
H23   H     H_    0.005025 0.835765 0.431611 0.150300
H24   H     H_    0.965265 0.842676 0.554889 0.158340
C81   C     C_R   0.452141 0.156198 0.561222 -0.006570
C82   C     C_R   0.487878 0.172093 0.415440 0.003731
C83   C     C_R   0.012164 0.671487 0.584594 0.003746
C84   C     C_R   0.048093 0.656106 0.438815 -0.007069
C85   C     C_R   0.435574 0.059562 0.512861 0.029628
C86   C     C_R   0.446240 0.075757 0.438279 0.061086
C87   C     C_R   0.053686 0.574713 0.561515 0.061756
C88   C     C_R   0.064459 0.558892 0.486897 0.030348
C89   C     C_R   0.504065 0.266246 0.462859 -0.139187
C90   C     C_R   0.483732 0.260251 0.533984 -0.139338
C91   C     C_R   0.016775 0.760522 0.466368 -0.139736
C92   C     C_R   0.996284 0.766281 0.537467 -0.139089
C93   C     C_R   0.412792 0.944577 0.535304 -0.086146
C94   C     C_R   0.421672 0.988259 0.388657 -0.017637
C95   C     C_R   0.078144 0.486624 0.610899 -0.019802
C96   C     C_R   0.087257 0.443788 0.464142 -0.086170
C97   C     C_R   0.098696 0.373760 0.586667 -0.064195
C98   C     C_R   0.100668 0.352429 0.513592 -0.116181
C99   C     C_R   0.399481 0.853557 0.485569 -0.115736
C100  C     C_R   0.401295 0.875367 0.412560 -0.062613
H25   H     H_    0.408619 0.918678 0.590357 0.201892
H26   H     H_    0.422459 0.004079 0.331182 0.127102
H27   H     H_    0.077310 0.502091 0.668422 0.123773
H28   H     H_    0.091519 0.418010 0.409054 0.201351
H29   H     H_    0.111092 0.301869 0.624266 0.142057
H30   H     H_    0.115900 0.265658 0.494635 0.146381
H31   H     H_    0.384592 0.766621 0.504193 0.146825
H32   H     H_    0.389017 0.803762 0.374744 0.142718
C101  C     C_R   0.772554 0.864021 0.560841 -0.036253
C102  C     C_R   0.209550 0.841102 0.442731 -0.025415
C103  C     C_R   0.290660 0.341050 0.557296 -0.025059
C104  C     C_R   0.727160 0.363299 0.439184 -0.035544
C105  C     C_R   0.824149 0.918157 0.517883 -0.003224
C106  C     C_R   0.160609 0.916434 0.481169 0.035256
C107  C     C_R   0.339530 0.416202 0.518991 0.035187
C108  C     C_R   0.675529 0.417563 0.482300 -0.003620
C109  C     C_R   0.824518 0.890565 0.444546 -0.008218
C110  C     C_R   0.162831 0.914181 0.556947 0.001377
C111  C     C_R   0.337276 0.414300 0.443195 0.000801
C112  C     C_R   0.675544 0.390262 0.555650 -0.008469
C113  C     C_R   0.702430 0.833030 0.453630 0.183860
C114  C     C_R   0.261956 0.784792 0.558922 0.175748
C115  C     C_R   0.238685 0.284658 0.440954 0.174044
C116  C     C_R   0.797907 0.333293 0.546085 0.182685
C117  C     C_R   0.712751 0.816242 0.527184 -0.132460
C118  C     C_R   0.251342 0.761765 0.484645 -0.179363
C119  C     C_R   0.249214 0.261738 0.515245 -0.178604
C120  C     C_R   0.787321 0.315958 0.472624 -0.132028
C121  C     C_R   0.865304 0.016641 0.540745 -0.096985
C122  C     C_R   0.110150 0.996089 0.450259 -0.054101
C123  C     C_R   0.390023 0.495247 0.550057 -0.050874
C124  C     C_R   0.634080 0.516145 0.459605 -0.097355
C125  C     C_R   0.908421 0.075017 0.492086 -0.139012
C126  C     C_R   0.065304 0.062627 0.492749 -0.161421
C127  C     C_R   0.434432 0.562326 0.507703 -0.160139
C128  C     C_R   0.591201 0.575065 0.508491 -0.138866
C129  C     C_R   0.920187 0.024828 0.424381 -0.117043
C130  C     C_R   0.059823 0.040172 0.565593 -0.135835
C131  C     C_R   0.439895 0.540296 0.434793 -0.136992
C132  C     C_R   0.579721 0.525016 0.576214 -0.116777
C133  C     C_R   0.882519 0.923413 0.403227 -0.079254
C134  C     C_R   0.106027 0.959462 0.597065 -0.075385
C135  C     C_R   0.393985 0.459598 0.403182 -0.075215
C136  C     C_R   0.617594 0.423378 0.597173 -0.079860
C137  C     C_R   0.758639 0.879299 0.412340 -0.005517
C138  C     C_R   0.225505 0.879590 0.590852 0.013943
C139  C     C_R   0.274744 0.379704 0.409185 0.013369
C140  C     C_R   0.741617 0.379283 0.587597 -0.006018
H33   H     H_    0.858643 0.058926 0.592205 0.206171
H34   H     H_    0.102234 0.016092 0.394706 0.204483
H35   H     H_    0.398456 0.514205 0.605668 0.204295
H36   H     H_    0.640299 0.558098 0.408076 0.207130
H37   H     H_    0.933220 0.158393 0.507591 0.181820
H38   H     H_    0.035643 0.133908 0.467485 0.122129
H39   H     H_    0.463883 0.633448 0.533166 0.122898
H40   H     H_    0.566302 0.658660 0.493111 0.180924
H41   H     H_    0.955353 0.067345 0.386780 0.111658
H42   H     H_    0.021738 0.087826 0.597896 0.139859
H43   H     H_    0.477795 0.588124 0.402583 0.139295
H44   H     H_    0.544634 0.567814 0.613960 0.111885
H45   H     H_    0.887502 0.891658 0.348275 0.128548
H46   H     H_    0.101996 0.942567 0.654311 0.134297
H47   H     H_    0.398139 0.442747 0.345922 0.135329
H48   H     H_    0.612861 0.391759 0.652137 0.128356
N1    N     N_R   0.632791 0.820929 0.425003 0.065424
O53   O     O_R   0.621296 0.762762 0.365084 -0.379270
O54   O     O_R   0.580842 0.874110 0.457210 -0.361006
N2    N     N_R   0.293621 0.695517 0.604020 0.049100
O55   O     O_R   0.348016 0.723074 0.643135 -0.390139
O56   O     O_R   0.255311 0.603763 0.622799 -0.335528
N3    N     N_R   0.207675 0.194928 0.395800 0.049482
O57   O     O_R   0.154284 0.222515 0.355129 -0.384368
O58   O     O_R   0.245831 0.101406 0.379070 -0.332301
N4    N     N_R   0.867806 0.322382 0.574295 0.065421
O59   O     O_R   0.880201 0.264036 0.633955 -0.380135
O60   O     O_R   0.919197 0.375616 0.541519 -0.360649
H49   H     H_    0.671301 0.776221 0.558530 0.168495
H50   H     H_    0.278368 0.686551 0.459445 0.144381
H51   H     H_    0.222409 0.186503 0.540338 0.144711
H52   H     H_    0.828876 0.276131 0.441128 0.168783
H53   H     H_    0.572689 0.315674 0.941236 0.114161
H54   H     H_    0.471721 0.363985 0.050514 0.103229
H55   H     H_    0.058784 0.828002 0.939735 0.110609
H56   H     H_    0.960242 0.857039 0.052843 0.102738
H57   H     H_    0.858101 0.985542 0.071963 0.140410
H58   H     H_    0.141183 0.992334 0.927164 0.144454
H59   H     H_    0.360834 0.474275 0.074492 0.134725
H60   H     H_    0.650898 0.521917 0.935569 0.152657
H61   H     H_    0.627905 0.822666 0.876245 0.141220
H62   H     H_    0.354699 0.734633 0.111610 0.167296
H63   H     H_    0.129535 0.307031 0.879832 0.139542
H64   H     H_    0.871969 0.302006 0.122268 0.140028
H65   H     H_    0.064677 0.151746 0.077595 0.101088
H66   H     H_    0.932466 0.151362 0.921667 0.098867
H67   H     H_    0.553054 0.680530 0.073606 0.102480
H68   H     H_    0.431518 0.647358 0.906401 0.104774

loop_
_geom_bond_atom_site_label_1
_geom_bond_atom_site_label_2
_geom_bond_distance
_ccdc_geom_bond_type
O4    C12   1.274467 A    
C115  N3    1.422921 S    
O39   C19   1.321793 A    
C70   C74   1.382826 A    
Cr11  O51   1.991403 S    
C132  C136  1.385162 A    
C45   C61   1.413916 A    
Cr7   O51   1.987265 S    
C93   C99   1.385264 A    
C53   H57   1.082862 S    
C13   C104  1.460126 S    
O25   C21   1.295565 A    
C31   H3    1.111087 S    
O21   C9    1.278799 A    
C61   H61   1.078601 S    
C88   C96   1.404602 A    
C123  H35   1.065508 S    
C1    O9    1.281190 A    
O44   Cr12  2.063701 S    
C70   H68   1.081625 S    
C3    O11   1.312236 A    
C7    C35   1.457999 S    
C4    O12   1.278413 A    
C127  H39   1.072873 S    
C15   C102  1.499245 S    
C136  H48   1.084304 S    
C130  H42   1.082051 S    
C112  C140  1.396229 A    
C69   C73   1.388462 A    
O2    C10   1.272000 A    
C67   H15   1.077375 S    
O17   Cr9   2.086285 S    
C42   C58   1.398343 A    
C26   H54   1.109298 S    
C128  C132  1.394011 A    
C126  H38   1.072903 S    
O16   Cr8   1.960548 S    
C29   C33   1.541469 S    
H24   C92   1.078716 S    
C113  C117  1.392270 A    
C24   C140  1.469243 S    
O12   Cr8   2.063568 S    
O22   Cr10  1.945302 S    
O15   C7    1.271046 A    
O46   Cr10  1.965684 S    
C52   C76   1.411212 A    
C87   C88   1.414707 A    
O48   C24   1.265247 A    
C53   C77   1.389566 A    
C112  C136  1.402986 A    
C84   C91   1.393553 A    
C61   C67   1.392701 A    
C32   C36   1.539345 S    
C122  H34   1.065559 S    
C102  C118  1.412255 A    
O31   Cr3   1.944275 S    
C87   C95   1.411697 A    
C82   C86   1.396201 A    
C63   C65   1.393885 A    
C1    C44   1.464983 S    
Cr12  O52   1.986636 S    
C55   H59   1.081833 S    
N3    O58   1.299055 A    
N4    O60   1.301567 A    
C17   O41   1.276397 A    
C47   C51   1.418619 A    
C19   O43   1.292751 A    
C20   O44   1.276152 A    
Cr8   O52   1.992095 S    
C9    C77   1.459931 S    
O46   C22   1.311059 A    
C107  C111  1.409496 A    
C59   H11   1.080144 S    
C49   C77   1.414803 A    
C50   C74   1.411489 A    
C55   C59   1.370205 A    
C31   C40   1.540556 S    
C53   C57   1.366330 A    
C16   O36   1.291147 A    
C30   C34   1.538835 S    
C54   C58   1.367605 A    
C124  H36   1.071447 S    
C35   C39   1.528226 S    
C94   H26   1.082970 S    
O31   C15   1.337287 A    
C133  H45   1.084314 S    
O32   C16   1.304379 A    
C131  C135  1.378108 A    
O47   Cr11  1.964349 S    
C125  C129  1.393924 A    
H21   C89   1.078537 S    
C109  C133  1.402819 A    
C135  H47   1.083927 S    
C86   C94   1.411574 A    
C111  C139  1.401139 A    
C125  H37   1.072151 S    
C73   H17   1.081710 S    
C103  C119  1.411733 A    
O24   C12   1.281436 A    
N1    O53   1.301658 A    
C127  C131  1.381548 A    
C117  H49   1.082565 S    
O8    Cr4   1.952511 S    
C46   C50   1.420270 A    
O32   Cr4   1.946315 S    
C21   C137  1.469939 S    
C120  H52   1.082541 S    
C55   C79   1.386369 A    
C56   C80   1.394564 A    
O11   Cr7   2.067366 S    
C115  C139  1.389390 A    
N2    O56   1.298930 A    
C102  C106  1.442158 A    
C39   C40   1.542851 S    
C23   C139  1.498587 S    
O3    Cr3   2.062722 S    
C46   C62   1.423102 A    
C104  C108  1.408260 A    
C113  N1    1.436075 S    
C54   H58   1.082661 S    
Cr5   O49   1.987265 S    
C116  C140  1.421509 A    
C31   C35   1.541304 S    
C71   H65   1.080467 S    
C33   C37   1.528386 S    
O22   C10   1.284015 A    
C76   H20   1.081776 S    
C108  C112  1.396565 A    
C18   C81   1.478100 S    
C2    O10   1.281450 A    
C27   C28   1.549098 S    
C12   C80   1.457743 S    
C130  C134  1.378128 A    
C44   C48   1.426498 A    
O5    C1    1.276189 A    
C29   C38   1.540881 S    
C66   H14   1.077877 S    
C44   C60   1.398233 A    
O3    C11   1.281484 A    
O8    C4    1.281934 A    
C58   H10   1.083378 S    
C94   C100  1.378216 A    
Cr1   O49   2.000576 S    
C41   C45   1.423026 A    
Cr3   O51   2.000576 S    
C43   C47   1.428006 A    
C29   H1    1.111200 S    
C17   C82   1.457512 S    
O26   Cr2   2.073178 S    
C5    O17   1.266209 A    
O27   C23   1.268917 A    
O28   C24   1.293576 A    
O14   C6    1.271002 A    
C20   C83   1.457730 S    
C39   H7    1.105986 S    
C98   H30   1.058617 S    
C8    O20   1.261832 A    
N4    O59   1.301675 A    
C132  H44   1.081729 S    
O40   Cr8   1.944121 S    
C65   H13   1.078408 S    
C110  C138  1.401038 A    
C106  C122  1.419848 A    
C66   C72   1.388348 A    
C68   H16   1.079545 S    
C57   H9    1.080481 S    
C67   C69   1.388199 A    
C14   C103  1.499467 S    
C32   H4    1.110620 S    
C60   H12   1.080131 S    
O33   Cr5   2.078847 S    
C25   C29   1.546229 S    
O35   Cr7   2.078847 S    
O29   Cr1   1.944275 S    
C105  C109  1.396594 A    
Cr9   O49   1.991403 S    
C84   C88   1.427035 A    
C18   O42   1.292702 A    
H23   C91   1.072863 S    
O26   C22   1.267063 A    
C30   C37   1.543226 S    
C121  H33   1.071935 S    
O20   Cr12  2.087337 S    
C10   C78   1.460867 S    
C74   H18   1.081573 S    
C108  C124  1.404746 A    
C63   H63   1.077766 S    
C50   C78   1.407189 A    
C64   H64   1.078531 S    
C68   C70   1.384455 A    
O38   C18   1.320802 A    
C28   H56   1.108463 S    
C30   H2    1.108669 S    
O30   C14   1.339592 A    
C37   H5    1.110402 S    
C93   H25   1.066346 S    
O28   Cr4   2.073178 S    
C96   H28   1.066209 S    
O6    Cr2   1.952511 S    
H22   C90   1.072851 S    
O42   Cr10  2.063701 S    
C85   C93   1.404398 A    
O18   Cr10  2.087337 S    
C103  C107  1.442549 A    
C11   C79   1.462278 S    
O34   Cr6   2.077246 S    
C26   C30   1.548518 S    
C71   C75   1.388435 A    
O24   Cr12  1.945302 S    
C51   C79   1.409996 A    
O30   Cr2   1.946315 S    
C118  H50   1.082985 S    
C82   C89   1.393643 A    
O48   Cr12  1.965684 S    
C121  C125  1.388311 A    
O37   C17   1.269678 A    
C15   O35   1.292307 A    
Cr10  O50   1.986636 S    
C47   C63   1.414760 A    
O40   C20   1.268803 A    
O43   Cr11  2.061549 S    
C48   C64   1.415207 A    
C62   H62   1.069399 S    
O37   Cr5   1.947499 S    
O21   Cr9   1.942567 S    
O39   Cr7   1.947499 S    
O45   Cr9   1.964349 S    
C13   O33   1.290215 A    
O13   Cr5   1.962153 S    
O15   Cr7   1.962153 S    
C114  N2    1.422686 S    
C75   H19   1.082433 S    
C32   C39   1.544366 S    
C72   H66   1.081069 S    
O23   C11   1.280332 A    
C19   C84   1.478126 S    
C36   C40   1.530431 S    
C101  C117  1.402073 A    
C119  H51   1.083052 S    
O6    C2    1.280470 A    
C37   C38   1.541578 S    
O1    Cr1   2.062722 S    
O19   Cr11  2.086285 S    
C99   C100  1.379262 A    
O29   C13   1.302944 A    
C97   C98   1.379256 A    
O45   C21   1.266675 A    
C96   C98   1.384844 A    
O47   C23   1.312375 A    
C114  C138  1.388751 A    
C129  C133  1.384901 A    
C123  C127  1.379096 A    
C91   C92   1.383203 A    
C40   H8    1.107535 S    
C89   C90   1.383099 A    
C6    O18   1.264033 A    
O41   Cr9   2.061549 S    
C25   C26   1.550667 S    
O36   Cr8   2.077246 S    
O38   Cr6   1.944121 S    
O13   C5    1.270914 A    
C115  C119  1.416714 A    
C25   C34   1.528261 S    
C110  C134  1.412251 A    
C54   C78   1.393000 A    
C28   C32   1.547184 S    
C27   C36   1.524021 S    
C72   C76   1.388176 A    
O1    C9    1.281714 A    
C43   C59   1.405284 A    
C85   C86   1.414661 A    
O7    C3    1.294100 A    
C116  N4    1.436170 S    
C41   C57   1.404531 A    
C25   H53   1.108876 S    
C27   H55   1.104165 S    
C95   C97   1.378287 A    
C62   C68   1.393974 A    
C126  C130  1.381691 A    
O23   Cr11  1.942567 S    
C131  H43   1.082060 S    
C22   C138  1.498002 S    
C3    C42   1.471486 S    
C45   C49   1.416914 A    
C69   H67   1.079950 S    
C28   C35   1.532121 S    
C104  C120  1.402063 A    
C56   H60   1.082647 S    
C116  C120  1.391925 A    
C101  C105  1.408388 A    
C7    O19   1.267136 A    
Cr4   O52   2.000477 S    
O2    Cr2   2.065471 S    
O14   Cr6   1.960548 S    
C5    C33   1.456690 S    
Cr6   O50   1.992095 S    
C52   C80   1.411868 A    
O5    Cr1   1.953612 S    
C56   C60   1.362858 A    
C122  C126  1.379376 A    
C129  H41   1.081696 S    
O9    Cr5   2.067366 S    
O16   C8    1.271479 A    
C64   C66   1.392180 A    
N1    O54   1.301546 A    
C128  H40   1.072574 S    
O7    Cr3   1.953612 S    
C114  C118  1.416695 A    
C83   C87   1.396102 A    
C8    C36   1.456150 S    
C26   C33   1.532453 S    
N2    O55   1.300255 A    
Cr2   O50   2.000477 S    
C42   C46   1.441117 A    
C51   C75   1.409486 A    
O27   Cr3   2.073705 S    
C49   C73   1.411262 A    
C83   C92   1.394010 A    
N3    O57   1.300442 A    
C81   C90   1.393804 A    
C124  C128  1.388329 A    
C4    C41   1.466696 S    
C38   H6    1.104233 S    
O25   Cr1   2.073705 S    
C81   C85   1.426589 A    
C99   H31   1.058363 S    
C97   H29   1.080634 S    
C95   H27   1.082945 S    
C14   O34   1.293398 A    
C6    C34   1.458360 S    
C107  C123  1.420048 A    
C16   C101  1.460396 S    
C109  C137  1.395734 A    
C105  C121  1.404558 A    
C111  C135  1.412436 A    
C34   C38   1.529985 S    
O10   Cr6   2.063568 S    
C65   C71   1.389726 A    
C113  C137  1.421752 A    
O4    Cr4   2.065471 S    
C100  H32   1.080577 S    
C27   C31   1.546267 S    
C106  C110  1.409255 A    
C134  H46   1.083934 S    
C2    C43   1.472461 S    
C48   C52   1.417474 A    
