data_str_m9_o18_o24_f0_sra.sym.47
_audit_creation_date              2012-12-11T15:31:37-0500
_audit_creation_method            fapswitch 2.2
_symmetry_space_group_name_H-M    P1
_symmetry_Int_Tables_number       1
_space_group_crystal_system       triclinic
_cell_length_a                    6.942175
_cell_length_b                    14.762864
_cell_length_c                    21.315787
_cell_angle_alpha                 74.789178
_cell_angle_beta                  90.490206
_cell_angle_gamma                 89.9992
_cell_volume                      2107.96261423

loop_
_atom_site_label
_atom_site_type_symbol
_atom_type_description
_atom_site_fract_x
_atom_site_fract_y
_atom_site_fract_z
_atom_type_partial_charge
O1    O     O_R   0.648150 0.130050 0.214300 -0.542363
O2    O     O_R   0.351850 0.869950 0.785700 -0.542363
O3    O     O_R   0.320490 0.006660 0.340150 -0.544655
O4    O     O_R   0.679510 0.993340 0.659850 -0.544655
O5    O     O_R   0.146100 0.869940 0.285700 -0.537992
O6    O     O_R   0.853900 0.130060 0.714300 -0.537993
C1    C     C_R   0.489498 0.001579 0.367157 0.672242
C2    C     C_R   0.510502 0.998421 0.632843 0.672242
O7    O     O_R   0.318690 0.137980 0.218120 -0.543655
O8    O     O_R   0.681310 0.862020 0.781880 -0.543654
O9    O     O_R   0.144280 0.002190 0.162800 -0.544314
O10   O     O_R   0.855720 0.997810 0.837200 -0.544314
C3    C     C_R   0.486721 0.175699 0.206006 0.688944
C4    C     C_R   0.513279 0.824301 0.793994 0.688943
O11   O     O_R   0.649960 0.997790 0.337200 -0.542916
O12   O     O_R   0.350040 0.002210 0.662800 -0.542916
O13   O     O_3   0.479300 0.955290 0.231990 -0.361998
O14   O     O_3   0.520700 0.044710 0.768010 -0.361997
V1    V     V_3+5 0.206040 0.008290 0.253340 1.421845
V2    V     V_3+5 0.793960 0.991710 0.746660 1.421845
O15   O     O_R   0.814320 0.993320 0.159850 -0.533339
O16   O     O_R   0.185680 0.006680 0.840150 -0.533336
C5    C     C_R   0.982630 0.998470 0.132894 0.732477
C6    C     C_R   0.017370 0.001530 0.867106 0.732471
O17   O     O_R   0.816120 0.862000 0.281880 -0.534610
O18   O     O_R   0.183880 0.138000 0.718120 -0.534610
C7    C     C_R   0.985443 0.824363 0.294051 0.696844
C8    C     C_R   0.014556 0.175638 0.705950 0.696844
V3    V     V_3+5 0.705540 0.991700 0.246660 1.450091
V4    V     V_3+5 0.294460 0.008300 0.753340 1.450094
O19   O     O_3   0.982150 0.044700 0.268010 -0.376141
O20   O     O_3   0.017850 0.955300 0.731990 -0.376141
C9    C     C_R   0.996550 0.722327 0.320469 -0.130657
C10   C     C_R   0.003449 0.277673 0.679532 -0.130656
C11   C     C_R   0.042354 0.565054 0.309167 -0.161699
C12   C     C_R   0.957636 0.434945 0.690834 -0.161700
C13   C     C_R   0.026574 0.661165 0.280364 0.348280
C14   C     C_R   0.973416 0.338834 0.719637 0.348281
C15   C     C_R   0.983015 0.686326 0.387938 -0.261990
C16   C     C_R   0.016989 0.313675 0.612063 -0.261990
C17   C     C_R   0.000258 0.588987 0.417806 0.085021
C18   C     C_R   0.999744 0.411013 0.582196 0.085021
C19   C     C_R   0.030386 0.528740 0.376805 0.064749
C20   C     C_R   0.969611 0.471260 0.623196 0.064748
C21   C     C_R   0.989858 0.549657 0.486740 0.074670
C22   C     C_R   0.010146 0.450343 0.513262 0.074670
C23   C     C_R   0.039912 0.393787 0.469963 -0.187821
C24   C     C_R   0.960095 0.606214 0.530038 -0.187822
C25   C     C_R   0.049481 0.432383 0.403344 -0.186816
C26   C     C_R   0.950520 0.567617 0.596657 -0.186815
H1    H     H_    0.072809 0.386017 0.372182 0.118172
H2    H     H_    0.927192 0.613983 0.627819 0.118173
H3    H     H_    0.038898 0.263068 0.584464 0.108984
H4    H     H_    0.961110 0.736932 0.415537 0.108984
H5    H     H_    0.065157 0.518333 0.278229 0.130457
H6    H     H_    0.934826 0.481666 0.721772 0.130457
H7    H     H_    0.056936 0.318783 0.485704 0.115352
H8    H     H_    0.943076 0.681218 0.514297 0.115351
C27   C     C_3   0.819831 0.989833 0.977858 -0.239587
C28   C     C_3   0.180167 0.010169 0.022142 -0.239554
C29   C     C_3   0.927571 0.919588 0.033493 0.538724
C30   C     C_3   0.072428 0.080415 0.966506 0.538716
H9    H     H_    0.672591 0.980488 0.959806 0.139569
H10   H     H_    0.327409 0.019518 0.040191 0.139574
C31   C     C_3   0.992048 0.999588 0.062307 -0.125548
C32   C     C_3   0.007952 0.000414 0.937693 -0.125546
C33   C     C_3   0.885862 0.071440 0.006606 -0.270757
C34   C     C_3   0.114136 0.928563 0.993393 -0.270722
H11   H     H_    0.793685 0.130146 0.012368 0.121603
H12   H     H_    0.206307 0.869853 0.987634 0.121605
C35   C     C_3   0.681434 0.994649 0.479728 -0.120735
C36   C     C_3   0.318566 0.005351 0.520271 -0.120735
C37   C     C_3   0.601478 0.073576 0.507951 -0.136408
C38   C     C_3   0.398522 0.926424 0.492049 -0.136407
H13   H     H_    0.685083 0.134326 0.514991 0.101622
H14   H     H_    0.314917 0.865674 0.485009 0.101622
H15   H     H_    0.831125 0.990297 0.462790 0.106997
H16   H     H_    0.168875 0.009703 0.537210 0.106997
C39   C     C_3   0.502156 0.999002 0.562245 -0.004147
C40   C     C_3   0.497844 0.000998 0.437755 -0.004147
C41   C     C_3   0.582190 0.920089 0.534835 -0.142511
C42   C     C_3   0.417810 0.079911 0.465165 -0.142511
H17   H     H_    0.649611 0.854078 0.564021 0.098051
H18   H     H_    0.350389 0.145922 0.435979 0.098051
C43   C     C_R   0.490295 0.277379 0.178704 -0.032754
C44   C     C_R   0.509704 0.722621 0.821296 -0.032751
C45   C     C_R   0.414034 0.432252 0.188993 -0.150404
C46   C     C_R   0.585941 0.567746 0.811006 -0.150407
C47   C     C_R   0.436495 0.336516 0.216991 -0.177048
C48   C     C_R   0.563486 0.663483 0.783007 -0.177053
C49   C     C_R   0.522818 0.314096 0.112217 -0.222633
C50   C     C_R   0.477192 0.685905 0.887784 -0.222625
C51   C     C_R   0.496694 0.411029 0.082044 0.085592
C52   C     C_R   0.503301 0.588971 0.917956 0.085593
C53   C     C_R   0.440206 0.469630 0.121960 0.137777
C54   C     C_R   0.559777 0.530369 0.878039 0.137786
C55   C     C_R   0.519022 0.451069 0.013655 0.061471
C56   C     C_R   0.480971 0.548930 0.986345 0.061465
C57   C     C_R   0.422439 0.603479 0.028322 -0.217792
C58   C     C_R   0.577544 0.396518 0.971677 -0.217813
C59   C     C_R   0.404874 0.564667 0.094675 -0.189277
C60   C     C_R   0.595102 0.435331 0.905323 -0.189296
H19   H     H_    0.359939 0.609484 0.124877 0.161339
H20   H     H_    0.640026 0.390513 0.875120 0.161333
H21   H     H_    0.441059 0.735854 0.914684 0.087213
H22   H     H_    0.558970 0.264148 0.085318 0.087225
H23   H     H_    0.591816 0.691838 0.731679 0.101482
H24   H     H_    0.408155 0.308161 0.268319 0.101482
H25   H     H_    0.370761 0.476850 0.219508 0.123439
H26   H     H_    0.629202 0.523148 0.780489 0.123440
H27   H     H_    0.387691 0.676957 0.011629 0.123464
H28   H     H_    0.612280 0.323039 0.988369 0.123464
O21   O     O_3   0.958121 0.308660 0.786519 -0.639199
H29   H     H_    0.974144 0.239738 0.801207 0.298559
O22   O     O_3   0.041865 0.691339 0.213482 -0.639192
H30   H     H_    0.025846 0.760261 0.198794 0.298567
O23   O     O_3   0.851126 0.835552 0.073022 -0.553731
C61   C     C_3   0.806441 0.774152 0.034387 -0.207404
H31   H     H_    0.936792 0.755565 0.010415 0.128673
H32   H     H_    0.693012 0.804184 0.997653 0.111211
H33   H     H_    0.749280 0.708101 0.066399 0.185942
O24   O     O_3   0.148910 0.164443 0.926979 -0.553737
C62   C     C_3   0.193351 0.225894 0.965600 -0.207422
H34   H     H_    0.306508 0.195865 0.002440 0.111186
H35   H     H_    0.062825 0.244570 0.989440 0.128764
H36   H     H_    0.250764 0.291894 0.933599 0.185928

loop_
_geom_bond_atom_site_label_1
_geom_bond_atom_site_label_2
_ccdc_geom_bond_type
C32   C34   S    
C46   C54   A    
C54   C60   A    
O13   V3    S    
C30   O24   S    
O4    C2    A    
V1    O19   S    
C55   C56   A    
C43   C49   A    
C62   H34   S    
C23   C25   A    
C21   C22   A    
C7    C9    S    
O9    V1    S    
C9    C15   A    
C38   H14   S    
C30   C33   S    
C10   C16   A    
C11   C13   A    
C48   H23   S    
C36   C39   S    
O3    C1    A    
C27   C32   S    
C62   H35   S    
C15   H4    S    
C49   C51   A    
C52   C56   A    
O12   V4    S    
O22   H30   S    
C56   C57   A    
C28   C30   S    
C18   C22   A    
O7    C3    A    
C61   H31   S    
C36   H16   S    
C27   C33   S    
O5    C7    A    
O7    V1    S    
O6    C8    A    
O8    V2    S    
C31   C33   S    
C45   C53   A    
C2    C39   S    
C26   H2    S    
O3    V1    S    
O14   V4    S    
C11   C19   A    
C6    C32   S    
C46   H26   S    
C24   C26   A    
C8    C10   S    
C2    O12   A    
C38   C40   S    
C17   C19   A    
C49   H22   S    
C18   C20   A    
C58   C60   A    
C35   C40   S    
C41   H17   S    
C45   H25   S    
O11   V3    S    
O17   V3    S    
C27   C29   S    
C30   C32   S    
C29   O23   S    
C4    C44   S    
C36   C38   S    
C44   C48   A    
C39   C41   S    
C14   O21   S    
C43   C47   A    
C19   C25   A    
C62   H36   S    
C1    O11   A    
C25   H1    S    
C11   H5    S    
C9    C13   A    
C33   H11   S    
C61   H33   S    
C52   C54   A    
C12   H6    S    
C23   H7    S    
C57   H27   S    
O10   V2    S    
O1    V3    S    
C37   C39   S    
C60   H20   S    
C28   C34   S    
O5    V1    S    
C40   C42   S    
C57   C59   A    
C46   C48   A    
C28   C31   S    
C58   H28   S    
C42   H18   S    
O15   C5    A    
O8    C4    A    
O16   C6    A    
C12   C20   A    
O1    C3    A    
C37   H13   S    
C38   C41   S    
C12   C14   A    
C51   C55   A    
C37   C42   S    
C35   H15   S    
C55   C58   A    
C35   C37   S    
O21   H29   S    
V2    O20   S    
C21   C24   A    
C20   C26   A    
C22   C23   A    
O16   V4    S    
C10   C14   A    
C27   H9    S    
C16   C18   A    
C24   H8    S    
C13   O22   S    
O17   C7    A    
O6    V2    S    
O10   C6    A    
O18   C8    A    
O2    V4    S    
C28   H10   S    
C5    C31   S    
C45   C47   A    
V3    O19   S    
C44   C50   A    
O23   C61   S    
V4    O20   S    
C29   C34   S    
C50   C52   A    
C51   C53   A    
O15   V3    S    
C47   H24   S    
O9    C5    A    
O13   V1    S    
O14   V2    S    
O2    C4    A    
C61   H32   S    
O4    V2    S    
C29   C31   S    
C50   H21   S    
C15   C17   A    
C59   H19   S    
C16   H3    S    
C3    C43   S    
C34   H12   S    
C17   C21   A    
O24   C62   S    
C36   C42   S    
C53   C59   A    
C1    C40   S    
C35   C41   S    
O18   V4    S    
