data_str_m2_o10_o29_f0_pcu.sym.172
_audit_creation_date              2012-12-10T16:51:15-0500
_audit_creation_method            fapswitch 2.2
_symmetry_space_group_name_H-M    P1
_symmetry_Int_Tables_number       1
_space_group_crystal_system       triclinic
_cell_length_a                    27.850935
_cell_length_b                    8.661191
_cell_length_c                    7.431333
_cell_angle_alpha                 103.366723
_cell_angle_beta                  95.105275
_cell_angle_gamma                 92.360288
_cell_volume                      1733.59212504

loop_
_atom_site_label
_atom_site_type_symbol
_atom_type_description
_atom_site_fract_x
_atom_site_fract_y
_atom_site_fract_z
_atom_type_partial_charge
C1    C     C_R   0.498541 0.199380 0.452780 0.901541
C2    C     C_R   0.501460 0.800620 0.547220 0.901514
C3    C     C_R   0.101896 0.497010 0.498072 -0.102573
C4    C     C_R   0.898021 0.507392 0.496359 -0.105537
C5    C     C_R   0.123834 0.353264 0.428565 -0.154125
C6    C     C_R   0.875884 0.651310 0.563078 -0.159893
C7    C     C_R   0.093918 0.215246 0.339180 0.459898
C8    C     C_R   0.905674 0.790797 0.647741 0.445223
C9    C     C_R   0.131177 0.638857 0.568316 -0.034811
C10   C     C_R   0.868941 0.364611 0.429702 -0.018996
C11   C     C_R   0.354214 0.481350 0.497384 -0.184793
C12   C     C_R   0.645781 0.518954 0.502313 -0.203119
C13   C     C_R   0.970524 0.359374 0.428365 0.072809
C14   C     C_R   0.029479 0.645640 0.566879 0.069028
C15   C     C_R   0.978369 0.647562 0.568074 -0.021787
C16   C     C_R   0.021485 0.358057 0.423833 -0.017820
C17   C     C_R   0.949141 0.504994 0.497265 0.080510
C18   C     C_R   0.050782 0.500072 0.496577 0.081146
C19   C     C_R   0.939980 0.218737 0.368426 -0.178548
C20   C     C_R   0.060323 0.785227 0.632265 -0.130144
C21   C     C_R   0.890350 0.222182 0.366146 -0.047597
C22   C     C_R   0.109961 0.781052 0.635004 -0.020535
C23   C     C_R   0.407379 0.491659 0.499293 0.861024
C24   C     C_R   0.592620 0.508351 0.500687 0.860519
C25   C     C_R   0.043942 0.219750 0.341244 -0.270252
C26   C     C_R   0.955619 0.786998 0.644897 -0.262083
C27   C     C_2   0.497784 0.031210 0.426282 -0.325342
C28   C     C_2   0.502220 0.968790 0.573717 -0.319960
C29   C     C_R   0.174877 0.355686 0.449815 0.608573
C30   C     C_R   0.824801 0.647693 0.543284 0.593367
C31   C     C_R   0.181323 0.636844 0.565879 0.539725
C32   C     C_R   0.818820 0.365934 0.433168 0.576018
C33   C     C_R   0.284251 0.547975 0.665358 -0.090000
C34   C     C_R   0.715575 0.452543 0.333257 -0.107073
C35   C     C_R   0.334017 0.546722 0.662364 -0.198176
C36   C     C_R   0.665843 0.453136 0.337162 -0.215865
C37   C     C_R   0.323132 0.413765 0.332481 0.347999
C38   C     C_R   0.676975 0.587784 0.666623 0.409461
C39   C     C_R   0.273319 0.439327 0.330733 0.056919
C40   C     C_R   0.726890 0.563645 0.667460 0.082219
C41   C     C_R   0.253652 0.496438 0.500647 0.279212
C42   C     C_R   0.746334 0.505581 0.497243 0.266652
Cu1   Cu    Cu3+1 0.505380 0.517380 0.684380 1.044604
Cu2   Cu    Cu3+1 0.494620 0.482620 0.315620 1.043671
H1    H     H_    0.462470 0.375854 0.946988 0.261830
H2    H     H_    0.537534 0.624136 0.053007 0.259897
H3    H     H_    0.642973 0.402288 0.209746 0.213870
H4    H     H_    0.356795 0.596700 0.790251 0.209851
H5    H     H_    0.730313 0.406777 0.202771 0.174128
H6    H     H_    0.269380 0.593323 0.795646 0.166823
H7    H     H_    0.868745 0.111039 0.315831 0.230643
H8    H     H_    0.131751 0.891483 0.688391 0.234184
H9    H     H_    0.952959 0.102010 0.324899 0.167753
H10   H     H_    0.047738 0.901725 0.681152 0.162738
H11   H     H_    0.023030 0.113209 0.269130 0.198852
H12   H     H_    0.976124 0.895886 0.710506 0.205336
H13   H     H_    0.493575 0.958568 0.284639 0.186474
H14   H     H_    0.506430 0.041432 0.715360 0.186916
N1    N     N_R   0.202122 0.496680 0.506823 -0.467427
N2    N     N_R   0.797821 0.506047 0.489843 -0.471286
N3    N     N_2   0.486510 0.456430 0.038510 -0.204029
N4    N     N_2   0.513490 0.543570 0.961490 -0.203962
O1    O     O_R   0.503500 0.286120 0.619780 -0.598607
O2    O     O_R   0.496500 0.713880 0.380220 -0.599924
O3    O     O_R   0.494410 0.256780 0.308360 -0.560500
O4    O     O_R   0.505590 0.743220 0.691640 -0.560672
O5    O     O_R   0.434810 0.514700 0.655690 -0.597164
O6    O     O_R   0.565190 0.485300 0.344310 -0.597914
O7    O     O_R   0.425720 0.485350 0.344280 -0.517576
O8    O     O_R   0.574280 0.514650 0.655720 -0.516028
O9    O     O_2   0.197601 0.219235 0.419070 -0.427853
O10   O     O_2   0.801738 0.783473 0.571927 -0.415025
O11   O     O_2   0.791227 0.228107 0.381533 -0.476044
O12   O     O_2   0.209136 0.774066 0.620974 -0.481888
S1    S     S_3+6 0.344397 0.281679 0.137665 0.021085
O13   O     O_2   0.362649 0.376777 0.009637 -0.285519
O14   O     O_2   0.384707 0.190025 0.200572 -0.295884
O15   O     O_3   0.300142 0.149844 0.018524 -0.473495
H15   H     H_    0.291226 0.085997 0.106663 0.370725
S2    S     S_3+6 0.655566 0.718745 0.861977 0.008646
O16   O     O_2   0.615274 0.810067 0.798323 -0.294077
O17   O     O_2   0.637428 0.622437 0.989085 -0.328264
O18   O     O_3   0.699790 0.851051 0.980524 -0.492685
H16   H     H_    0.685730 0.908369 0.093040 0.390226
C43   C     C_3   0.241343 0.414833 0.149649 -0.678937
H17   H     H_    0.262406 0.433308 0.035713 0.253093
H18   H     H_    0.223490 0.293529 0.111218 0.295427
H19   H     H_    0.213174 0.502752 0.161341 0.201175
C44   C     C_3   0.759296 0.591108 0.847910 -0.645513
H20   H     H_    0.738749 0.571590 0.962786 0.241953
H21   H     H_    0.788092 0.505400 0.836293 0.203623
H22   H     H_    0.776403 0.713512 0.884809 0.304877
S3    S     S_3+6 0.115611 0.039780 0.201539 0.016108
O19   O     O_2   0.074508 0.932086 0.088904 -0.326838
O20   O     O_2   0.148914 0.084916 0.071081 -0.284712
O21   O     O_3   0.145718 0.939989 0.339838 -0.478840
H23   H     H_    0.156655 0.845626 0.254030 0.377029
S4    S     S_3+6 0.884105 0.968260 0.781145 0.023733
O22   O     O_2   0.856746 0.053535 0.654255 -0.240614
O23   O     O_2   0.851276 0.927023 0.915365 -0.265233
O24   O     O_3   0.930214 0.091053 0.902755 -0.567560
H24   H     H_    0.915610 0.192639 0.952247 0.374475

loop_
_geom_bond_atom_site_label_1
_geom_bond_atom_site_label_2
_ccdc_geom_bond_type
S3    O19   D    
C8    C26   A    
C23   O7    A    
C34   C42   A    
Cu1   Cu2   S    
C24   O8    A    
C39   C41   A    
C43   H17   S    
Cu2   O2    S    
O24   H24   S    
H2    N4    S    
C19   C21   A    
C9    C22   A    
C23   O5    A    
C36   H3    S    
C31   N1    A    
C11   C23   S    
C11   C37   A    
C8    S4    S    
C29   N1    A    
C30   N2    A    
C1    O3    A    
C40   C44   S    
C44   H21   S    
C19   H9    S    
C40   C42   A    
C37   S1    S    
S3    O20   D    
Cu2   O3    S    
S2    O18   S    
C35   H4    S    
C1    O1    A    
C3    C18   A    
C2    O2    A    
C5    C29   A    
C43   H18   S    
C10   C21   A    
C7    S3    S    
C13   C19   A    
Cu1   O1    S    
C14   C20   A    
C41   N1    S    
C20   H10   S    
C27   H13   S    
C42   N2    S    
C32   O11   S    
C5    C7    A    
C24   O6    A    
O15   H15   S    
C15   C26   A    
C6    C8    A    
C2    O4    A    
C33   H6    S    
S1    O13   D    
C3    C9    A    
O18   H16   S    
O21   H23   S    
Cu2   O7    S    
C16   C18   A    
C44   H22   S    
S1    O14   D    
C4    C17   A    
S2    O17   D    
C6    C30   A    
C20   C22   A    
S3    O21   S    
S4    O23   D    
Cu2   O6    S    
C4    C6    A    
C12   C36   A    
C32   N2    A    
C4    C10   A    
C21   H7    S    
C22   H8    S    
C43   H19   S    
C16   C25   A    
C15   C17   A    
C34   H5    S    
C14   C18   A    
C25   H11   S    
S2    O16   D    
C3    C5    A    
C26   H12   S    
C30   O10   S    
C28   H14   S    
Cu2   N3    S    
Cu1   O8    S    
S4    O24   S    
C12   C24   S    
C7    C25   A    
C13   C17   A    
C33   C41   A    
C11   C35   A    
C37   C39   A    
C38   C40   A    
C38   S2    S    
Cu1   O4    S    
H1    N3    S    
C33   C35   A    
C34   C36   A    
C12   C38   A    
N3    N4    D    
C31   O12   S    
S1    O15   S    
C9    C31   A    
C10   C32   A    
Cu1   O5    S    
S4    O22   D    
C13   C16   A    
C27   C28   D    
C1    C27   S    
C39   C43   S    
C14   C15   A    
C2    C28   S    
C44   H20   S    
Cu1   N4    S    
C29   O9    S    
