data_str_m3_o10_o18_f0_pcu.sym.64
_audit_creation_date              2013-03-05T15:40:58-0500
_audit_creation_method            fapswitch 2.2
_symmetry_space_group_name_H-M    P1
_symmetry_Int_Tables_number       1
_space_group_crystal_system       triclinic
_cell_length_a                    7.880279
_cell_length_b                    8.558034
_cell_length_c                    13.723018
_cell_angle_alpha                 93.642734
_cell_angle_beta                  92.979145
_cell_angle_gamma                 94.054802
_cell_volume                      919.811199268

loop_
_atom_site_label
_atom_site_type_symbol
_atom_site_description
_atom_site_fract_x
_atom_site_fract_y
_atom_site_fract_z
_atom_type_partial_charge
O1    O     O_R   0.891570 0.738930 0.506190 -0.599970
O2    O     O_R   0.108430 0.261070 0.493810 -0.598852
O3    O     O_R   0.174650 0.711050 0.490030 -0.576237
O4    O     O_R   0.825350 0.288950 0.509970 -0.576573
C1    C     C_R   0.044874 0.794440 0.497614 0.944792
C2    C     C_R   0.955141 0.205567 0.502450 0.945392
O5    O     O_R   0.909850 0.521900 0.644940 -0.626243
O6    O     O_R   0.090150 0.478100 0.355060 -0.621982
O7    O     O_R   0.192930 0.494020 0.628780 -0.591497
O8    O     O_R   0.807070 0.505980 0.371220 -0.596759
C3    C     C_R   0.063417 0.513822 0.682049 0.849852
C4    C     C_R   0.937218 0.489236 0.317835 0.854576
Zn1   Zn    Zn3+2 0.810990 0.518620 0.510790 1.076815
Zn2   Zn    Zn3+2 0.189010 0.481380 0.489210 1.081635
C5    C     C_R   0.099861 0.546618 0.786242 -0.060542
C6    C     C_R   0.907821 0.482449 0.212229 -0.049008
C7    C     C_R   0.080039 0.714356 0.932697 -0.188114
C8    C     C_R   0.963859 0.378001 0.050679 -0.189749
C9    C     C_R   0.013865 0.657470 0.840029 -0.177557
C10   C     C_R   0.013002 0.403786 0.149629 -0.184376
C11   C     C_R   0.246477 0.489357 0.825960 -0.231606
C12   C     C_R   0.762703 0.546330 0.174999 -0.230999
C13   C     C_R   0.325911 0.558097 0.912825 0.100274
C14   C     C_R   0.711011 0.523114 0.076139 0.083443
C15   C     C_R   0.237230 0.667475 0.968771 0.163958
C16   C     C_R   0.810281 0.431729 0.014370 0.173477
C17   C     C_R   0.491414 0.521682 0.944533 0.065113
C18   C     C_R   0.556338 0.577823 0.039297 0.057438
C19   C     C_R   0.464605 0.686507 0.093924 -0.206719
C20   C     C_R   0.596029 0.435124 0.883420 -0.198838
C21   C     C_R   0.308307 0.731124 0.058625 -0.212771
C22   C     C_R   0.753281 0.392156 0.917889 -0.221855
H1    H     H_    0.242952 0.816027 0.101879 0.157252
H2    H     H_    0.829064 0.324829 0.869238 0.154153
H3    H     H_    0.685271 0.604674 0.226256 0.168128
H4    H     H_    0.300187 0.395189 0.784758 0.151906
H5    H     H_    0.127599 0.355473 0.177847 0.179401
H6    H     H_    0.899749 0.703501 0.809320 0.180350
H7    H     H_    0.012272 0.799387 0.974299 0.144268
H8    H     H_    0.042427 0.311412 0.003334 0.144739
H9    H     H_    0.513497 0.744474 0.162726 0.163066
H10   H     H_    0.562292 0.402631 0.807341 0.172865
C23   C     C_2   0.067997 0.958076 0.495699 -0.348631
C24   C     C_2   0.932037 0.041935 0.504443 -0.351513
H11   H     H_    0.196029 0.008818 0.486731 0.247158
H12   H     H_    0.804006 0.991191 0.513414 0.247138
N1    N     N_2   0.440860 0.456490 0.474790 0.037750
N2    N     N_2   0.559140 0.543510 0.525210 0.036005
N3    N     N_R   0.490151 0.311322 0.441646 0.304845
O9    O     O_R   0.480193 0.195696 0.498658 -0.376383
O10   O     O_R   0.501952 0.280745 0.348325 -0.399263
N4    N     N_R   0.509679 0.688320 0.558924 0.304561
O11   O     O_R   0.519597 0.804576 0.502393 -0.375776
O12   O     O_R   0.498277 0.718016 0.652360 -0.398534

loop_
_geom_bond_atom_site_label_1
_geom_bond_atom_site_label_2
_geom_bond_distance
_ccdc_geom_bond_type
C15   C21   1.389461 A    
Zn1   N2    2.029437 S    
O5    C3    1.296469 A    
O7    Zn2   1.910015 S    
C21   H1    1.084174 S    
C16   C22   1.388934 A    
Zn2   N1    2.029437 S    
C12   H3    1.076802 S    
C9    H6    1.083177 S    
C13   C17   1.415329 A    
C23   H11   1.085991 S    
N1    N2    1.292845 D    
C8    C16   1.403391 A    
O6    C4    1.296478 A    
C23   C24   1.337353 D    
C7    C15   1.404361 A    
N3    O10   1.300154 A    
C13   C15   1.418086 A    
C1    C23   1.401463 S    
N1    N3    1.384198 S    
C11   H4    1.078655 S    
C2    C24   1.401518 S    
C17   C20   1.418097 A    
C20   C22   1.385706 A    
C10   H5    1.083143 S    
O7    C3    1.300381 A    
O2    C2    1.280525 A    
O3    Zn2   1.976105 S    
O8    C4    1.301779 A    
O1    C1    1.280514 A    
C18   C19   1.418626 A    
C7    C9    1.393769 A    
C14   C16   1.418917 A    
C5    C9    1.399279 A    
N2    N4    1.384203 S    
C8    C10   1.392011 A    
C11   C13   1.392885 A    
O2    Zn2   1.952431 S    
C12   C14   1.393836 A    
C5    C11   1.385880 A    
O1    Zn1   1.952432 S    
C6    C12   1.389547 A    
C6    C10   1.399159 A    
C4    C6    1.452522 S    
O5    Zn1   1.959089 S    
N4    O11   1.300457 A    
O4    C2    1.292597 A    
N3    O9    1.300468 A    
C7    H7    1.083750 S    
C17   C18   1.414365 A    
C8    H8    1.083916 S    
C20   H10   1.077878 S    
O6    Zn2   1.959090 S    
C24   H12   1.086003 S    
C19   H9    1.077789 S    
C19   C21   1.387607 A    
C3    C5    1.449344 S    
C14   C18   1.416747 A    
O4    Zn1   1.976104 S    
N4    O12   1.300207 A    
O3    C1    1.292606 A    
O8    Zn1   1.910016 S    
C22   H2    1.084249 S    
