data_str_m3_o16_o24_f0_pcu.sym.65
_audit_creation_date              2012-12-10T18:11:46-0500
_audit_creation_method            fapswitch 2.2
_symmetry_space_group_name_H-M    P1
_symmetry_Int_Tables_number       1
_space_group_crystal_system       triclinic
_cell_length_a                    10.527467
_cell_length_b                    12.598815
_cell_length_c                    13.174489
_cell_angle_alpha                 83.666786
_cell_angle_beta                  92.284204
_cell_angle_gamma                 100.980717
_cell_volume                      1704.60111853

loop_
_atom_site_label
_atom_site_type_symbol
_atom_type_description
_atom_site_fract_x
_atom_site_fract_y
_atom_site_fract_z
_atom_type_partial_charge
C1    C     C_R   0.470494 0.442019 0.689508 0.871095
C2    C     C_R   0.419970 0.462519 0.967470 0.074736
C3    C     C_R   0.423669 0.493404 0.861778 0.093457
C4    C     C_R   0.741990 0.500936 0.495959 0.869610
C5    C     C_R   0.465315 0.544752 0.032918 0.053370
C6    C     C_R   0.523483 0.651273 0.991860 0.099066
C7    C     C_R   0.494429 0.682716 0.889862 -0.269876
C8    C     C_R   0.433921 0.605222 0.828303 -0.176685
C9    C     C_R   0.458161 0.523453 0.137366 -0.220836
C10   C     C_R   0.619428 0.686441 0.159652 0.034961
C11   C     C_R   0.423619 0.412685 0.794427 -0.154826
C12   C     C_3   0.041974 0.511523 0.398003 0.509746
C13   C     C_R   0.279057 0.083415 0.376529 0.008196
C14   C     C_R   0.659557 0.801040 0.627162 -0.000204
C15   C     C_R   0.695094 0.906589 0.652720 -0.265301
C16   C     C_R   0.519572 0.559304 0.309465 0.925985
C17   C     C_R   0.633928 0.987305 0.603770 -0.194989
C18   C     C_R   0.536399 0.962576 0.528127 0.036135
C19   C     C_R   0.503352 0.853800 0.505696 0.192923
C20   C     C_R   0.468652 0.040629 0.476457 -0.060192
C21   C     C_R   0.361941 0.007864 0.408559 0.095003
C22   C     C_R   0.344634 0.902169 0.376480 0.021028
C23   C     C_3   0.978111 0.595658 0.443471 -0.290521
C24   C     C_R   0.409730 0.825986 0.430189 -0.251173
C25   C     C_R   0.503134 0.151189 0.490247 -0.084404
C26   C     C_R   0.322116 0.191721 0.392298 -0.032438
C27   C     C_R   0.257850 0.500137 0.499612 0.947122
C28   C     C_3   0.957726 0.489828 0.589228 -0.157508
C29   C     C_3   0.061001 0.584663 0.542379 -0.194059
C30   C     C_3   0.122678 0.500935 0.495889 -0.100469
C31   C     C_3   0.021306 0.405949 0.542349 -0.275703
C32   C     C_3   0.938861 0.417449 0.443514 0.053838
C33   C     C_3   0.301877 0.154505 0.966587 -0.437124
C34   C     C_3   0.876791 0.500704 0.490825 -0.057274
C35   C     C_3   0.157692 0.128929 0.936127 -0.321500
C36   C     C_3   0.099893 0.008502 0.958679 -0.918643
C37   C     C_3   0.272879 0.870346 0.278406 -0.421782
C38   C     C_3   0.362994 0.839754 0.202489 -0.317683
C39   C     C_3   0.294254 0.817971 0.100660 -0.809199
C40   C     C_3   0.137083 0.052788 0.346447 -0.452945
C41   C     C_3   0.107632 0.108182 0.240273 -0.351464
C42   C     C_3   0.972533 0.062290 0.201438 -0.899013
C43   C     C_3   0.869284 0.320029 0.389077 -0.386414
C44   C     C_3   0.798477 0.355002 0.290057 -0.257106
C45   C     C_R   0.606842 0.721993 0.053884 0.092036
C46   C     C_3   0.704984 0.259643 0.250726 -0.888529
C47   C     C_3   0.732852 0.735612 0.225975 -0.375243
C48   C     C_3   0.710430 0.837363 0.271433 -0.344007
C49   C     C_3   0.796721 0.858454 0.365647 -0.868031
C50   C     C_3   0.689235 0.827144 0.004912 -0.420453
C51   C     C_3   0.616934 0.922833 0.996457 -0.351169
C52   C     C_3   0.695396 0.024503 0.939103 -0.903736
C53   C     C_R   0.532161 0.593004 0.200712 -0.115354
C54   C     C_R   0.384789 0.303015 0.830021 -0.245161
C55   C     C_R   0.356721 0.271972 0.932743 0.170672
C56   C     C_R   0.381101 0.350523 0.002302 -0.238994
H1    H     H_    0.114517 0.652742 0.583018 0.163904
H2    H     H_    0.663526 0.067228 0.628316 0.133791
H3    H     H_    0.769662 0.925732 0.710330 0.144560
H4    H     H_    0.390151 0.745502 0.407978 0.241928
H5    H     H_    0.042903 0.329084 0.582733 0.154360
H6    H     H_    0.957356 0.672393 0.402395 0.159565
H7    H     H_    0.517685 0.766080 0.856342 0.164804
H8    H     H_    0.150615 0.959100 0.915025 0.265533
H9    H     H_    0.107364 0.982531 0.041510 0.272998
H10   H     H_    0.996065 0.993846 0.935373 0.253779
H11   H     H_    0.103369 0.176980 0.978438 0.226060
H12   H     H_    0.394426 0.451956 0.170993 0.183657
H13   H     H_    0.144909 0.152320 0.852988 0.222053
H14   H     H_    0.356119 0.101459 0.930372 0.200543
H15   H     H_    0.314049 0.137122 0.050401 0.187481
H16   H     H_    0.196313 0.767457 0.112371 0.312717
H17   H     H_    0.286659 0.896174 0.055786 0.235607
H18   H     H_    0.350805 0.774177 0.056244 0.253851
H19   H     H_    0.446353 0.907761 0.189424 0.192511
H20   H     H_    0.400322 0.766380 0.233627 0.263480
H21   H     H_    0.191194 0.801661 0.297140 0.240832
H22   H     H_    0.234190 0.938030 0.236841 0.221591
H23   H     H_    0.376050 0.240998 0.777966 0.165068
H24   H     H_    0.965712 0.975865 0.188266 0.266629
H25   H     H_    0.899696 0.069147 0.257663 0.271270
H26   H     H_    0.951723 0.108859 0.128150 0.255607
H27   H     H_    0.114308 0.196571 0.243940 0.253331
H28   H     H_    0.179105 0.098451 0.184429 0.219768
H29   H     H_    0.103952 0.963736 0.352091 0.207447
H30   H     H_    0.078577 0.080458 0.403307 0.201386
H31   H     H_    0.757916 0.195767 0.233722 0.257152
H32   H     H_    0.630100 0.224477 0.307925 0.272558
H33   H     H_    0.656014 0.288200 0.179480 0.251785
H34   H     H_    0.370581 0.321755 0.082254 0.127893
H35   H     H_    0.743736 0.419478 0.301916 0.220730
H36   H     H_    0.869462 0.388376 0.229568 0.279768
H37   H     H_    0.941620 0.271598 0.370738 0.216514
H38   H     H_    0.799678 0.267265 0.442882 0.204820
H39   H     H_    0.145090 0.421849 0.165119 0.374541
H40   H     H_    0.770227 0.791502 0.427356 0.290503
H41   H     H_    0.899344 0.863190 0.347022 0.250793
H42   H     H_    0.784650 0.935771 0.393777 0.250880
H43   H     H_    0.730852 0.908915 0.213699 0.214436
H44   H     H_    0.608887 0.827887 0.294523 0.239652
H45   H     H_    0.401385 0.634426 0.753429 0.184662
H46   H     H_    0.751741 0.673572 0.288584 0.199154
H47   H     H_    0.824567 0.753308 0.183436 0.196498
H48   H     H_    0.788796 0.049920 0.979819 0.262689
H49   H     H_    0.714398 0.008976 0.860347 0.260668
H50   H     H_    0.640240 0.091823 0.934510 0.254097
H51   H     H_    0.521984 0.902262 0.956716 0.223275
H52   H     H_    0.599235 0.942320 0.073742 0.219833
H53   H     H_    0.781249 0.850656 0.047254 0.203346
H54   H     H_    0.719920 0.814480 0.928101 0.199032
H55   H     H_    0.263257 0.252034 0.368947 0.177707
H56   H     H_    0.585252 0.184033 0.535853 0.133421
H57   H     H_    0.706734 0.737750 0.664561 0.145730
H58   H     H_    0.919342 0.480989 0.667616 0.143006
N1    N     N_R   0.432930 0.222190 0.444670 -0.120657
N2    N     N_R   0.566370 0.776980 0.554790 -0.133821
O1    O     O_R   0.467970 0.366730 0.627150 -0.616423
O2    O     O_2   0.237505 0.600629 0.273590 -0.363509
O3    O     O_3   0.122036 0.407460 0.238158 -0.625864
O4    O     O_R   0.510820 0.544830 0.662520 -0.629639
O5    O     O_R   0.664630 0.410960 0.482340 -0.624636
O6    O     O_R   0.707470 0.589060 0.517710 -0.630027
O7    O     O_R   0.489180 0.455170 0.337480 -0.610531
O8    O     O_R   0.532030 0.633270 0.372850 -0.635589
O9    O     O_R   0.292530 0.410940 0.482290 -0.614175
O10   O     O_R   0.335370 0.589040 0.517660 -0.650211
O11   O     O_2   0.018512 0.580319 0.198789 -0.371289
S1    S     S_3+6 0.106796 0.528697 0.272944 -0.060083
Zn1   Zn    Zn3+2 0.471390 0.381080 0.476380 0.943256
Zn2   Zn    Zn3+2 0.528610 0.618920 0.523620 0.912973

loop_
_geom_bond_atom_site_label_1
_geom_bond_atom_site_label_2
_ccdc_geom_bond_type
C33   C55   S    
C55   C56   A    
C42   H24   S    
C6    C45   A    
C27   O9    A    
C41   C42   S    
C31   H5    S    
C35   C36   S    
C42   H26   S    
C7    C8    A    
C46   H33   S    
C38   H20   S    
C12   C23   S    
C29   C30   S    
O4    Zn2   S    
C23   C29   S    
C28   C29   S    
C16   O7    A    
C46   H31   S    
C25   N1    A    
C5    C6    A    
C27   O10   A    
C36   H10   S    
C20   C25   A    
O10   Zn2   S    
C41   H27   S    
C50   H54   S    
C43   H38   S    
C18   C19   A    
C39   H18   S    
C40   H30   S    
C10   C53   A    
C16   C53   S    
C13   C40   S    
C25   H56   S    
C33   C35   S    
C49   H42   S    
C26   N1    A    
C23   H6    S    
C31   C32   S    
C51   H52   S    
C1    C11   S    
C39   H16   S    
O1    Zn1   S    
C8    H45   S    
C44   H36   S    
C17   H2    S    
O3    S1    S    
C56   H34   S    
C52   H50   S    
C47   H46   S    
C21   C22   A    
C12   C32   S    
C27   C30   S    
C42   H25   S    
O2    S1    D    
C44   C46   S    
C50   C51   S    
C46   H32   S    
C38   H19   S    
C38   C39   S    
C48   H44   S    
C4    C34   S    
C47   H47   S    
C4    O6    A    
C51   C52   S    
C3    C8    A    
C36   H9    S    
H39   O3    S    
C41   H28   S    
C37   H21   S    
C50   H53   S    
C1    O4    A    
C32   C34   S    
C40   H29   S    
C43   C44   S    
C5    C9    A    
C37   C38   S    
C47   C48   S    
C35   H11   S    
C24   H4    S    
C23   C34   S    
C10   C45   A    
C17   C18   A    
O8    Zn2   S    
C1    O1    A    
C44   H35   S    
C7    H7    S    
C11   C54   A    
C28   H58   S    
C33   H14   S    
C48   C49   S    
C29   H1    S    
C52   H49   S    
C22   C24   A    
C13   C26   A    
C2    C5    A    
C9    C53   A    
O11   S1    D    
C54   H23   S    
N1    Zn1   S    
C15   C17   A    
C48   H43   S    
C54   C55   A    
C52   H48   S    
C12   C30   S    
C15   H3    S    
C28   C31   S    
O5    Zn1   S    
C6    C7    A    
C12   S1    S    
C14   H57   S    
C37   H22   S    
C2    C3    A    
C16   O8    A    
C9    H12   S    
C2    C56   A    
C13   C21   A    
C45   C50   S    
C22   C37   S    
C30   C31   S    
C19   N2    A    
C14   N2    A    
C43   H37   S    
C32   C43   S    
C4    O5    A    
C19   C24   A    
C18   C20   A    
C39   H17   S    
C49   H40   S    
C49   H41   S    
C3    C11   A    
C33   H15   S    
C28   C34   S    
O9    Zn1   S    
N2    Zn2   S    
C20   C21   A    
C35   H13   S    
C51   H51   S    
C10   C47   S    
C14   C15   A    
C40   C41   S    
C36   H8    S    
C26   H55   S    
O6    Zn2   S    
O7    Zn1   S    
