data_str_m9_o10_o29_f0_sra.sym.85
_audit_creation_date              2013-03-05T15:41:01-0500
_audit_creation_method            fapswitch 2.2
_symmetry_space_group_name_H-M    P1
_symmetry_Int_Tables_number       1
_space_group_crystal_system       triclinic
_cell_length_a                    28.198188
_cell_length_b                    7.196241
_cell_length_c                    17.194799
_cell_angle_alpha                 90.082821
_cell_angle_beta                  101.953607
_cell_angle_gamma                 89.965175
_cell_volume                      3413.52054038

loop_
_atom_site_label
_atom_site_type_symbol
_atom_site_description
_atom_site_fract_x
_atom_site_fract_y
_atom_site_fract_z
_atom_type_partial_charge
O1    O     O_R   0.000700 0.436510 0.857920 -0.552741
O2    O     O_R   0.999300 0.563490 0.142080 -0.552749
O3    O     O_R   0.999300 0.936510 0.642080 -0.552819
O4    O     O_R   0.000700 0.063490 0.357920 -0.552831
O5    O     O_R   0.930080 0.766380 0.721890 -0.557623
O6    O     O_R   0.069920 0.233620 0.278110 -0.557652
O7    O     O_R   0.069920 0.266380 0.778110 -0.557142
O8    O     O_R   0.930080 0.733620 0.221890 -0.557187
C1    C     C_R   0.910593 0.597581 0.708915 0.838104
C2    C     C_R   0.089408 0.402426 0.291070 0.838195
C3    C     C_R   0.089401 0.097547 0.791245 0.837036
C4    C     C_R   0.910597 0.902448 0.208778 0.837096
O9    O     O_R   0.996180 0.766230 0.862310 -0.559026
O10   O     O_R   0.003820 0.233770 0.137690 -0.559006
O11   O     O_R   0.003820 0.266230 0.637690 -0.559018
O12   O     O_R   0.996180 0.733770 0.362310 -0.559006
O13   O     O_R   0.065870 0.936460 0.783500 -0.557661
O14   O     O_R   0.934130 0.063540 0.216500 -0.557642
O15   O     O_R   0.934130 0.436460 0.716500 -0.557797
O16   O     O_R   0.065870 0.563540 0.283500 -0.557805
C5    C     C_R   0.998488 0.596505 0.894498 0.848187
C6    C     C_R   0.001512 0.403494 0.105502 0.848178
C7    C     C_R   0.001513 0.096388 0.605537 0.848376
C8    C     C_R   0.998486 0.903612 0.394463 0.848361
O17   O     O_3   0.022790 0.603020 0.723980 -0.283919
O18   O     O_3   0.977210 0.396980 0.276020 -0.283928
O19   O     O_3   0.977210 0.103020 0.776020 -0.284220
O20   O     O_3   0.022790 0.896980 0.223980 -0.284226
V1    V     V_3+5 0.995770 0.877900 0.754830 1.146737
V2    V     V_3+5 0.004230 0.122100 0.245170 1.146716
V3    V     V_3+5 0.004230 0.377900 0.745170 1.146875
V4    V     V_3+5 0.995770 0.622100 0.254830 1.146839
C9    C     C_2   0.001707 0.082590 0.519606 -0.233732
C10   C     C_2   0.998293 0.917410 0.480394 -0.233704
C11   C     C_2   0.998304 0.582665 0.980470 -0.232702
C12   C     C_2   0.001696 0.417335 0.019530 -0.232684
H1    H     H_    0.004501 0.211380 0.487998 0.107752
H2    H     H_    0.995499 0.788620 0.512002 0.107755
H3    H     H_    0.995531 0.711477 0.012231 0.107553
H4    H     H_    0.004469 0.288523 0.987769 0.107555
C13   C     C_R   0.682904 0.917051 0.028118 0.645882
C14   C     C_R   0.317141 0.084354 0.971892 0.645381
C15   C     C_R   0.316483 0.446242 0.472449 0.651211
C16   C     C_R   0.683449 0.556906 0.527585 0.650909
O21   O     O_2   0.711993 0.883030 0.976517 -0.501955
O22   O     O_2   0.288113 0.120417 0.023388 -0.501145
O23   O     O_2   0.286768 0.440860 0.524657 -0.509929
O24   O     O_2   0.713091 0.564973 0.475310 -0.509440
N1    N     N_R   0.702781 0.940948 0.107164 -0.431864
N2    N     N_R   0.297200 0.058511 0.892988 -0.431999
N3    N     N_R   0.297299 0.439098 0.392490 -0.430608
N4    N     N_R   0.702717 0.561069 0.607548 -0.430698
C17   C     C_R   0.674019 0.971931 0.161006 0.612129
C18   C     C_R   0.325895 0.025366 0.839234 0.612496
C19   C     C_R   0.326809 0.438541 0.338445 0.607348
C20   C     C_R   0.673299 0.558644 0.661722 0.607611
C21   C     C_R   0.776973 0.772288 0.167305 -0.002608
C22   C     C_R   0.223051 0.227374 0.832837 -0.002775
C23   C     C_R   0.222887 0.270044 0.332879 0.000340
C24   C     C_R   0.777120 0.729953 0.667204 0.000117
C25   C     C_R   0.827389 0.760244 0.191234 -0.083034
C26   C     C_R   0.172639 0.239559 0.808851 -0.082826
C27   C     C_R   0.172456 0.258533 0.309243 -0.085444
C28   C     C_R   0.827550 0.741421 0.690858 -0.085247
C29   C     C_R   0.834600 0.078110 0.149552 -0.161875
C30   C     C_R   0.165348 0.921847 0.850662 -0.161830
C31   C     C_R   0.165643 0.579236 0.347925 -0.162587
C32   C     C_R   0.834368 0.420991 0.651793 -0.162546
C33   C     C_R   0.783888 0.092049 0.124787 0.378980
C34   C     C_R   0.216053 0.907762 0.875506 0.378532
C35   C     C_R   0.216366 0.592623 0.372042 0.386055
C36   C     C_R   0.783643 0.407646 0.627624 0.385330
C37   C     C_R   0.754787 0.936354 0.133882 0.197086
C38   C     C_R   0.245194 0.063297 0.866334 0.197218
C39   C     C_R   0.245300 0.435102 0.364880 0.192243
C40   C     C_R   0.754714 0.565040 0.635028 0.192887
C41   C     C_R   0.602097 0.965346 0.054303 -0.065662
C42   C     C_R   0.397880 0.033759 0.945784 -0.065744
C43   C     C_R   0.397954 0.464162 0.445974 -0.066460
C44   C     C_R   0.602056 0.536165 0.554223 -0.066261
C45   C     C_R   0.632325 0.928808 0.000313 -0.040302
C46   C     C_R   0.367720 0.072447 0.999666 -0.040331
C47   C     C_R   0.366976 0.460328 0.500525 -0.039637
C48   C     C_R   0.632948 0.543068 0.499564 -0.039596
C49   C     C_R   0.611579 0.906022 0.919797 -0.041436
C50   C     C_R   0.388541 0.097465 0.080030 -0.041391
C51   C     C_R   0.386893 0.472123 0.581787 -0.041099
C52   C     C_R   0.612917 0.535011 0.418250 -0.041154
C53   C     C_R   0.623296 0.985626 0.135567 -0.034595
C54   C     C_R   0.376614 0.011449 0.864649 -0.034582
C55   C     C_R   0.377541 0.450750 0.364147 -0.033347
C56   C     C_R   0.622564 0.546417 0.636103 -0.033507
C57   C     C_R   0.856870 0.913237 0.182944 -0.153672
C58   C     C_R   0.143123 0.086694 0.817157 -0.153621
C59   C     C_R   0.143150 0.413027 0.316411 -0.155051
C60   C     C_R   0.856855 0.587025 0.683532 -0.154886
H5    H     H_    0.856792 0.197281 0.142684 0.139127
H6    H     H_    0.143122 0.802813 0.857571 0.139230
H7    H     H_    0.143695 0.700076 0.353579 0.138047
H8    H     H_    0.856328 0.300281 0.645985 0.138141
H9    H     H_    0.633918 0.876795 0.876996 0.142788
H10   H     H_    0.366273 0.128993 0.122700 0.142991
H11   H     H_    0.363931 0.469132 0.625103 0.139896
H12   H     H_    0.635785 0.541550 0.374831 0.140005
C61   C     C_R   0.478939 0.977463 0.917589 0.022126
C62   C     C_R   0.521006 0.020551 0.082532 0.022200
C63   C     C_R   0.520229 0.513201 0.583252 0.022657
C64   C     C_R   0.479817 0.485827 0.417044 0.022718
C65   C     C_R   0.469869 0.039846 0.055200 0.020431
C66   C     C_R   0.530135 0.960016 0.944812 0.020239
C67   C     C_R   0.530913 0.506798 0.444124 0.019695
C68   C     C_R   0.469054 0.495060 0.556096 0.019645
C69   C     C_R   0.449125 0.017058 0.972970 0.052366
C70   C     C_R   0.550850 0.981932 0.027102 0.052454
C71   C     C_R   0.550838 0.518753 0.527081 0.052784
C72   C     C_R   0.449170 0.481652 0.473161 0.052727
C73   C     C_R   0.456191 0.957157 0.836400 -0.102180
C74   C     C_R   0.543649 0.037725 0.163902 -0.102318
C75   C     C_R   0.542192 0.526554 0.665073 -0.101883
C76   C     C_R   0.457995 0.467714 0.335347 -0.101514
C77   C     C_R   0.406242 0.973917 0.810751 -0.060412
C78   C     C_R   0.593589 0.020652 0.189591 -0.060573
C79   C     C_R   0.592159 0.542436 0.690687 -0.058197
C80   C     C_R   0.408046 0.451177 0.309696 -0.057496
O25   O     O_2   0.305380 0.003354 0.761615 -0.525812
O26   O     O_2   0.694467 0.992041 0.238749 -0.525554
O27   O     O_2   0.693077 0.565413 0.740169 -0.524422
O28   O     O_2   0.307133 0.428871 0.260022 -0.524423
C81   C     C_R   0.561709 0.920829 0.892541 -0.100388
C82   C     C_R   0.438399 0.082121 0.107291 -0.099917
C83   C     C_R   0.436696 0.489185 0.609102 -0.101373
C84   C     C_R   0.563124 0.517471 0.390992 -0.101525
H13   H     H_    0.156850 0.368577 0.783317 0.121413
H14   H     H_    0.843209 0.631210 0.216700 0.121487
H15   H     H_    0.843516 0.871278 0.715225 0.123038
H16   H     H_    0.156489 0.128548 0.285030 0.123256
H17   H     H_    0.245127 0.346797 0.825879 0.147019
H18   H     H_    0.754928 0.652749 0.174229 0.147666
H19   H     H_    0.755247 0.850641 0.673250 0.158052
H20   H     H_    0.244756 0.149267 0.326970 0.159399
H21   H     H_    0.390884 0.956307 0.747992 0.130648
H22   H     H_    0.608873 0.035932 0.252489 0.130800
H23   H     H_    0.606898 0.551157 0.754018 0.127011
H24   H     H_    0.393404 0.438927 0.246455 0.126027
H25   H     H_    0.475774 0.927757 0.790369 0.068115
H26   H     H_    0.523956 0.063982 0.210076 0.068508
H27   H     H_    0.521963 0.524735 0.711690 0.066953
H28   H     H_    0.478373 0.464860 0.288942 0.066534
H29   H     H_    0.549316 0.900810 0.829612 0.068012
H30   H     H_    0.450903 0.105088 0.170018 0.067326
H31   H     H_    0.448408 0.497771 0.672634 0.069826
H32   H     H_    0.551245 0.513715 0.327384 0.070295
N5    N     N_R   0.762893 0.263763 0.090559 0.092274
O29   O     O_R   0.718756 0.310069 0.093896 -0.374057
O30   O     O_R   0.789003 0.381164 0.059992 -0.352936
N6    N     N_R   0.236982 0.736108 0.909928 0.092356
O31   O     O_R   0.210766 0.618723 0.940274 -0.352746
O32   O     O_R   0.281200 0.689893 0.907069 -0.373530
N7    N     N_R   0.237726 0.766175 0.403212 0.091745
O33   O     O_R   0.280689 0.814099 0.393917 -0.380410
O34   O     O_R   0.212840 0.883722 0.436268 -0.357092
N8    N     N_R   0.762290 0.234302 0.596139 0.091775
O35   O     O_R   0.787286 0.116690 0.563320 -0.356658
O36   O     O_R   0.719211 0.186565 0.604911 -0.379899

loop_
_geom_bond_atom_site_label_1
_geom_bond_atom_site_label_2
_geom_bond_distance
_ccdc_geom_bond_type
O17   V3    1.764326 S    
C47   C51   1.396318 A    
C61   C66   1.427935 A    
N1    C17   1.369255 A    
O1    C5    1.318776 A    
C30   H6    1.082809 S    
O19   V1    1.762774 S    
O13   V1    1.981083 S    
C63   C68   1.427723 A    
C64   C76   1.417919 A    
O3    C7    1.319409 A    
C11   C12   1.360620 D    
C14   C46   1.409745 A    
C44   C48   1.408504 A    
O15   V3    1.980875 S    
C42   C54   1.408755 A    
O7    C3    1.333229 A    
C41   C53   1.408763 A    
C32   C60   1.408260 A    
C62   C70   1.423046 A    
C34   N6    1.442585 S    
C23   H20   1.082144 S    
C26   H13   1.082919 S    
C73   H25   1.075435 S    
N6    O31   1.301596 A    
N3    C39   1.444935 S    
C18   C54   1.409774 A    
N2    C38   1.443395 S    
C74   C78   1.391226 A    
O4    C8    1.319409 A    
C25   C57   1.405074 A    
C31   C35   1.407601 A    
C53   C78   1.396281 A    
C75   H27   1.075879 S    
C27   C59   1.405278 A    
O1    V3    2.005975 S    
C15   C47   1.409189 A    
C66   C81   1.417925 A    
O2    V4    2.005975 S    
C14   O22   1.349329 S    
C20   O27   1.349484 S    
C21   C37   1.402763 A    
O3    V1    2.007178 S    
C73   C77   1.391216 A    
C34   C38   1.417098 A    
C19   C55   1.409839 A    
C49   C81   1.391208 A    
C83   H31   1.075478 S    
C1    O15   1.328730 A    
C82   H30   1.075626 S    
C2    O16   1.328705 A    
C7    C9    1.481880 S    
O2    C6    1.318776 A    
N7    O34   1.301595 A    
C33   C37   1.417021 A    
O14   V2    1.981083 S    
C41   C45   1.408667 A    
N5    O30   1.301706 A    
C66   C70   1.423108 A    
O5    V1    1.990450 S    
C65   C69   1.423057 A    
C30   C58   1.408344 A    
C16   N4    1.370048 A    
O11   C7    1.336780 A    
C28   H15   1.082942 S    
O12   C8    1.336780 A    
C43   C72   1.428462 A    
C62   C74   1.417779 A    
C31   C59   1.408269 A    
C61   C73   1.417836 A    
O10   V2    2.014152 S    
C63   C75   1.418064 A    
C52   H12   1.083953 S    
C25   H14   1.082926 S    
N8    O36   1.301145 A    
C18   O25   1.349333 S    
O7    V3    1.990205 S    
O8    V4    1.990202 S    
C77   H21   1.083620 S    
C12   H4    1.086169 S    
C28   C60   1.405278 A    
C56   C79   1.396496 A    
O18   V4    1.764327 S    
C50   C82   1.391198 A    
N4    C40   1.444628 S    
C46   C50   1.396393 A    
C24   C40   1.402807 A    
C8    C10   1.481880 S    
O9    V1    2.014152 S    
C32   C36   1.407718 A    
C44   C56   1.408742 A    
C11   H3    1.086169 S    
C35   N7    1.440525 S    
C32   H8    1.082911 S    
O5    C1    1.332856 A    
C42   C46   1.408750 A    
N7    O33   1.301173 A    
C44   C71   1.428368 A    
C74   H26   1.075426 S    
O8    C4    1.333184 A    
C13   C45   1.409743 A    
C9    C10   1.359326 D    
O9    C5    1.337631 A    
C36   C40   1.416329 A    
N2    C18   1.369255 A    
O11   V3    2.012023 S    
C1    C60   1.489462 S    
C63   C71   1.423001 A    
C51   C83   1.390927 A    
C22   C26   1.398445 A    
C14   N2    1.369265 A    
C51   H11   1.083641 S    
C22   H17   1.082674 S    
O6    V2    1.990450 S    
C76   H28   1.075711 S    
C75   C79   1.391143 A    
C55   C80   1.396489 A    
C26   C58   1.405007 A    
C17   C53   1.409808 A    
O10   C6    1.337631 A    
C84   H32   1.075792 S    
C54   C77   1.396276 A    
N1    C37   1.443475 S    
C4    C57   1.489873 S    
C42   C69   1.428698 A    
C52   C84   1.390866 A    
C79   H23   1.083920 S    
C41   C70   1.428707 A    
C50   H10   1.083642 S    
C23   C39   1.402871 A    
C68   C72   1.423288 A    
C49   H9    1.083562 S    
C22   C38   1.402790 A    
C9    H1    1.086207 S    
N8    O35   1.301631 A    
O16   V4    1.980875 S    
C61   C69   1.423128 A    
C3    O13   1.328799 A    
C13   O21   1.349301 S    
C10   H2    1.086208 S    
C43   C55   1.408717 A    
C48   C52   1.396414 A    
C3    C58   1.489884 S    
C16   C48   1.409165 A    
O6    C2    1.332897 A    
C21   C25   1.398392 A    
C5    C11   1.482859 S    
C31   H7    1.082915 S    
O12   V4    2.012024 S    
C13   N1    1.369302 A    
C6    C12   1.482859 S    
C23   C27   1.398206 A    
C36   N8    1.440700 S    
C64   C67   1.427477 A    
C24   C28   1.398157 A    
C27   H16   1.082937 S    
C64   C72   1.422791 A    
N6    O32   1.300977 A    
N5    O29   1.300890 A    
C29   H5    1.082827 S    
C35   C39   1.416297 A    
C15   N3    1.370140 A    
C30   C34   1.408530 A    
N4    C20   1.369792 A    
C2    C59   1.489519 S    
C29   C33   1.408539 A    
O20   V2    1.762775 S    
C29   C57   1.408345 A    
C21   H18   1.082677 S    
N3    C19   1.369794 A    
C68   C83   1.417616 A    
C33   N5    1.442466 S    
C17   O26   1.349312 S    
C24   H19   1.082207 S    
C43   C47   1.408250 A    
C76   C80   1.391100 A    
C67   C84   1.417602 A    
C20   C56   1.409777 A    
C19   O28   1.349404 S    
C45   C49   1.396351 A    
C4    O14   1.328852 A    
C65   C82   1.417901 A    
C78   H22   1.083577 S    
C80   H24   1.083745 S    
C67   C71   1.423191 A    
C81   H29   1.075495 S    
C15   O23   1.349527 S    
O4    V2    2.007178 S    
C16   O24   1.349587 S    
C62   C65   1.427810 A    
