data_str_m2_o4_o4_f0_pcu.sym.171
_audit_creation_date              2012-12-10T19:07:36-0500
_audit_creation_method            fapswitch 2.2
_symmetry_space_group_name_H-M    P1
_symmetry_Int_Tables_number       1
_space_group_crystal_system       triclinic
_cell_length_a                    10.80986
_cell_length_b                    10.828172
_cell_length_c                    9.569348
_cell_angle_alpha                 90.135294
_cell_angle_beta                  89.947854
_cell_angle_gamma                 89.796414
_cell_volume                      1120.09131025

loop_
_atom_site_label
_atom_site_type_symbol
_atom_type_description
_atom_site_fract_x
_atom_site_fract_y
_atom_site_fract_z
_atom_type_partial_charge
C1    C     C_R   0.506578 0.262568 0.499789 0.854684
C2    C     C_R   0.937168 0.493995 0.624622 0.116503
C3    C     C_3   0.933562 0.592052 0.734375 -0.372520
C4    C     C_3   0.074080 0.587303 0.733749 -0.396628
C5    C     C_R   0.460979 0.065273 0.610609 0.037705
C6    C     C_R   0.518320 0.129043 0.501755 -0.164469
C7    C     C_R   0.588276 0.059684 0.402568 0.346081
C8    C     C_R   0.579524 0.930836 0.403573 -0.270820
C9    C     C_R   0.506171 0.870119 0.501994 -0.081171
C10   C     C_R   0.452774 0.938830 0.609324 0.039460
C11   C     C_3   0.326095 0.940541 0.674370 -0.203432
C12   C     C_R   0.262619 0.492070 0.499518 0.846303
C13   C     C_3   0.336770 0.081253 0.676800 -0.433285
C14   C     C_R   0.502817 0.608343 0.072332 0.164934
C15   C     C_R   0.484533 0.393875 0.074032 0.145365
C16   C     C_R   0.486732 0.393426 0.925736 -0.005427
C17   C     C_R   0.496242 0.608341 0.925956 0.158830
C18   C     C_3   0.581392 0.714547 0.911065 -0.490532
C19   C     C_3   0.596148 0.712040 0.069336 0.250861
C20   C     C_R   0.498918 0.737304 0.500374 0.873397
C21   C     C_R   0.737658 0.497618 0.500161 0.884851
C22   C     C_R   0.064071 0.490101 0.623356 0.089637
C23   C     C_R   0.129635 0.472573 0.498902 -0.228068
C24   C     C_R   0.062488 0.434675 0.378111 0.331635
C25   C     C_R   0.933415 0.443817 0.380206 -0.182008
C26   C     C_R   0.870663 0.482269 0.501039 -0.172820
Cu1   Cu    Cu3+1 0.499990 0.499980 0.640670 0.979331
Cu2   Cu    Cu3+1 0.500010 0.500020 0.359330 1.106833
H1    H     H_    0.325725 0.898958 0.780519 0.135502
H2    H     H_    0.270819 0.131210 0.607543 0.212181
H3    H     H_    0.343785 0.119527 0.784367 0.202559
H4    H     H_    0.471035 0.307957 0.128262 0.193070
H5    H     H_    0.477846 0.306356 0.871684 0.147183
H6    H     H_    0.665092 0.689990 0.849157 0.245740
H7    H     H_    0.532314 0.798547 0.873730 0.162178
H8    H     H_    0.561326 0.797912 0.119276 0.071621
H9    H     H_    0.882394 0.423737 0.286129 0.269428
H10   H     H_    0.895056 0.680912 0.695407 0.212976
H11   H     H_    0.892388 0.557886 0.833303 0.261587
H12   H     H_    0.117646 0.673280 0.694874 0.209758
H13   H     H_    0.113705 0.550422 0.832405 0.232566
H14   H     H_    0.630099 0.878002 0.326856 0.219457
N1    N     N_R   0.500790 0.500930 0.147930 -0.174323
N2    N     N_R   0.500790 0.500890 0.852020 -0.184934
O1    O     O_R   0.500000 0.319640 0.618810 -0.604225
O2    O     O_R   0.500010 0.319680 0.381230 -0.542894
O3    O     O_R   0.319650 0.499970 0.618810 -0.589715
O4    O     O_R   0.319660 0.500010 0.381230 -0.510585
O5    O     O_R   0.499990 0.680320 0.618770 -0.607318
O6    O     O_R   0.500000 0.680360 0.381190 -0.573109
O7    O     O_R   0.680340 0.499990 0.618770 -0.592156
O8    O     O_R   0.680350 0.500030 0.381190 -0.495462
S1    S     S_3+6 0.131833 0.376516 0.222818 0.042831
O9    O     O_2   0.233269 0.287036 0.259457 -0.274045
O10   O     O_2   0.037827 0.310645 0.134397 -0.213845
O11   O     O_3   0.191406 0.493813 0.129921 -0.536039
H15   H     H_    0.121183 0.551308 0.115027 0.347632
S2    S     S_3+6 0.752672 0.672776 0.115356 0.005320
O12   O     O_2   0.775438 0.537610 0.089997 -0.289785
O13   O     O_2   0.839608 0.746651 0.025993 -0.283650
O14   O     O_3   0.780365 0.708032 0.283402 -0.547626
H16   H     H_    0.871562 0.705220 0.293019 0.367223
S3    S     S_3+6 0.690527 0.123425 0.277724 0.047632
O15   O     O_2   0.731249 0.250185 0.319569 -0.273083
O16   O     O_2   0.803241 0.042411 0.264710 -0.211350
O17   O     O_3   0.620165 0.129474 0.121403 -0.532640
H17   H     H_    0.601823 0.042412 0.097380 0.340598
C27   C     C_2   0.220300 0.896972 0.583791 0.874289
O18   O     O_2   0.114176 0.915732 0.622916 -0.555243
O19   O     O_R   0.241832 0.835505 0.457410 -0.773706
H18   H     H_    0.162490 0.810100 0.408957 0.339175

loop_
_geom_bond_atom_site_label_1
_geom_bond_atom_site_label_2
_ccdc_geom_bond_type
C2    C22   A    
Cu1   O5    S    
C23   C24   A    
S3    O16   D    
O19   H18   S    
C16   H5    S    
Cu2   O2    S    
C4    C22   S    
C9    C10   A    
C16   N2    A    
C9    C20   S    
C5    C13   S    
C14   C17   A    
C21   O7    A    
C12   O4    A    
C7    S3    S    
Cu1   O1    S    
S2    O14   S    
S1    O10   D    
O17   H17   S    
C25   C26   A    
S3    O17   S    
C3    H11   S    
C15   H4    S    
C2    C26   A    
S1    O9    D    
C24   C25   A    
Cu2   O8    S    
C12   C23   S    
C1    O1    A    
C20   O5    A    
S2    O13   D    
C12   O3    A    
C5    C6    A    
Cu1   N2    S    
C5    C10   A    
C21   C26   S    
Cu1   O7    S    
C17   C18   S    
C6    C7    A    
C2    C3    S    
C19   H8    S    
C18   H6    S    
C19   S2    S    
O14   H16   S    
S2    O12   D    
C1    O2    A    
C17   N2    A    
C7    C8    A    
C4    H13   S    
S3    O15   D    
C15   N1    A    
C15   C16   A    
C4    H12   S    
C13   H2    S    
C11   C13   S    
C11   C27   S    
C11   H1    S    
C27   O19   S    
C18   C19   S    
C18   H7    S    
S1    O11   S    
Cu1   O3    S    
C10   C11   S    
O11   H15   S    
C22   C23   A    
C14   N1    A    
C20   O6    A    
Cu2   N1    S    
C25   H9    S    
C24   S1    S    
C27   O18   D    
Cu2   O6    S    
C14   C19   S    
C13   H3    S    
C21   O8    A    
Cu2   O4    S    
C3    C4    S    
C1    C6    S    
C3    H10   S    
C8    H14   S    
C8    C9    A    
Cu1   Cu2   S    
