data_str_m9_o2_o17_f0_sra.sym.12
_audit_creation_date              2012-12-11T16:26:24-0500
_audit_creation_method            fapswitch 2.2
_symmetry_space_group_name_H-M    P1
_symmetry_Int_Tables_number       1
_space_group_crystal_system       triclinic
_cell_length_a                    6.970799
_cell_length_b                    17.570574
_cell_length_c                    19.367217
_cell_angle_alpha                 108.450353
_cell_angle_beta                  89.51858
_cell_angle_gamma                 90.649738
_cell_volume                      2250.01041285

loop_
_atom_site_label
_atom_site_type_symbol
_atom_type_description
_atom_site_fract_x
_atom_site_fract_y
_atom_site_fract_z
_atom_type_partial_charge
O1    O     O_R   0.494330 0.415720 0.413720 -0.537096
O2    O     O_R   0.819330 0.430070 0.560210 -0.557514
O3    O     O_R   0.994320 0.584280 0.586280 -0.543866
C1    C     C_R   0.649922 0.414175 0.580838 0.770387
O4    O     O_R   0.823730 0.406300 0.412670 -0.542705
O5    O     O_R   0.998760 0.560340 0.437690 -0.541440
C2    C     C_R   0.655185 0.383315 0.385196 0.703290
O6    O     O_R   0.489890 0.439660 0.562310 -0.522033
O7    O     O_3   0.662340 0.550560 0.508380 -0.375175
V1    V     V_3+5 0.935370 0.490620 0.498450 1.414393
O8    O     O_R   0.328750 0.569930 0.439790 -0.548557
C3    C     C_R   0.160880 0.584940 0.418196 0.695353
O9    O     O_R   0.324340 0.593700 0.587330 -0.528571
C4    C     C_R   0.155813 0.614179 0.616638 0.798172
V2    V     V_3+5 0.435940 0.509380 0.501550 1.444380
O10   O     O_3   0.159100 0.449440 0.491620 -0.372025
C5    C     C_R   0.228726 0.594973 0.762490 0.351954
C6    C     C_R   0.284760 0.589810 0.830513 -0.296173
C7    C     C_R   0.270853 0.655560 0.893447 0.422359
C8    C     C_R   0.217455 0.729132 0.887724 -0.215793
C9    C     C_R   0.174232 0.738838 0.819764 -0.047313
C10   C     C_R   0.183413 0.671208 0.755070 -0.017566
C11   C     C_R   0.119984 0.815052 0.816500 -0.114556
C12   C     C_R   0.079972 0.825303 0.748504 0.072679
C13   C     C_R   0.095706 0.759409 0.683329 0.022782
C14   C     C_R   0.145403 0.682145 0.686136 -0.152448
C15   C     C_R   0.028442 0.901222 0.743995 -0.230128
C16   C     C_R   0.995453 0.912384 0.677052 -0.134571
C17   C     C_R   0.012780 0.848401 0.612567 0.349648
C18   C     C_R   0.063528 0.772722 0.615889 -0.217986
H1    H     H_    0.336491 0.533627 0.834494 0.130332
H2    H     H_    0.210537 0.778684 0.937926 0.129307
H3    H     H_    0.015233 0.953154 0.792092 0.123584
H4    H     H_    0.959908 0.971666 0.675515 0.132404
H5    H     H_    0.077788 0.724678 0.564896 0.089750
C19   C     C_R   0.307444 0.633874 0.321105 -0.225947
C20   C     C_R   0.153317 0.633993 0.368568 -0.078563
C21   C     C_R   0.990041 0.679951 0.367400 -0.239111
C22   C     C_R   0.981091 0.726239 0.320297 0.095606
C23   C     C_R   0.135136 0.724934 0.272175 0.055922
C24   C     C_R   0.298103 0.677970 0.272125 0.089045
C25   C     C_R   0.820962 0.774009 0.320571 -0.192689
C26   C     C_R   0.812648 0.819723 0.273228 -0.189334
C27   C     C_R   0.963893 0.818155 0.224535 0.092205
C28   C     C_R   0.126483 0.770914 0.224222 0.050064
C29   C     C_R   0.280947 0.769995 0.176383 0.089822
C30   C     C_R   0.440433 0.721772 0.175733 -0.183644
C31   C     C_R   0.448752 0.675976 0.223040 -0.203732
C32   C     C_R   0.956007 0.863470 0.176597 -0.231937
C33   C     C_R   0.111156 0.864300 0.129883 -0.096741
C34   C     C_R   0.273453 0.817488 0.130251 -0.204659
H6    H     H_    0.433410 0.598414 0.321414 0.117872
H7    H     H_    0.871087 0.680764 0.404071 0.131951
H8    H     H_    0.701578 0.775776 0.357233 0.133579
H9    H     H_    0.687330 0.856091 0.274497 0.134293
H10   H     H_    0.830550 0.899381 0.176716 0.120649
H11   H     H_    0.392709 0.817076 0.093825 0.146198
H12   H     H_    0.559867 0.720241 0.139198 0.143218
H13   H     H_    0.574150 0.639645 0.221768 0.137836
C35   C     C_R   0.654206 0.216835 0.895936 -0.223888
C36   C     C_R   0.624199 0.133501 0.868995 -0.061004
C37   C     C_R   0.592548 0.096333 0.794399 -0.224349
C38   C     C_R   0.592927 0.141694 0.746302 0.105103
C39   C     C_R   0.624357 0.225362 0.773150 0.068748
C40   C     C_R   0.653556 0.263168 0.848486 0.111210
C41   C     C_R   0.560713 0.104832 0.671891 -0.195071
C42   C     C_R   0.562927 0.149846 0.623927 -0.189311
C43   C     C_R   0.597921 0.233392 0.649107 0.040405
C44   C     C_R   0.626185 0.271253 0.724735 0.014934
C45   C     C_R   0.656556 0.355012 0.752268 0.093749
C46   C     C_R   0.680503 0.392223 0.827447 -0.207887
C47   C     C_R   0.680108 0.346654 0.875031 -0.197174
C48   C     C_R   0.603471 0.280322 0.601135 0.214032
C49   C     C_R   0.640351 0.363737 0.629125 -0.121828
C50   C     C_R   0.663123 0.400396 0.704291 -0.308257
H14   H     H_    0.675667 0.245482 0.953811 0.103611
H15   H     H_    0.567180 0.032062 0.773983 0.111617
H16   H     H_    0.533155 0.040853 0.650665 0.124803
H17   H     H_    0.536119 0.118155 0.567156 0.138139
H18   H     H_    0.682052 0.464959 0.725587 0.129568
H19   H     H_    0.702495 0.456554 0.849317 0.132818
H20   H     H_    0.701017 0.376726 0.932662 0.124156
H21   H     H_    0.940639 0.141772 0.417161 0.110517
C51   C     C_R   0.503855 0.403527 0.253219 -0.139367
C52   C     C_R   0.430246 0.415411 0.190810 -0.128466
C53   C     C_R   0.419320 0.351896 0.126345 -0.123522
C54   C     C_R   0.481497 0.276009 0.123859 -0.138171
C55   C     C_R   0.554562 0.261722 0.186648 0.070440
C56   C     C_R   0.566350 0.326899 0.252752 0.071043
C57   C     C_R   0.620718 0.184713 0.183819 -0.185889
C58   C     C_R   0.703010 0.173360 0.246609 0.071341
C59   C     C_R   0.718931 0.238918 0.312233 0.066089
C60   C     C_R   0.646156 0.315324 0.315921 -0.189533
C61   C     C_R   0.767994 0.096910 0.245753 -0.138637
C62   C     C_R   0.853608 0.086069 0.306603 -0.125969
C63   C     C_R   0.873910 0.150427 0.369947 -0.138028
C64   C     C_R   0.805613 0.225728 0.373308 -0.126201
H22   H     H_    0.514118 0.455520 0.301248 0.104779
H23   H     H_    0.383570 0.474468 0.192271 0.117846
H24   H     H_    0.364161 0.361610 0.077741 0.112824
H25   H     H_    0.473876 0.229273 0.071842 0.105739
H26   H     H_    0.752691 0.044436 0.198391 0.105557
H27   H     H_    0.903787 0.027325 0.304648 0.120638
H28   H     H_    0.821229 0.272939 0.424601 0.138211
O11   O     O_R   0.775200 0.060470 0.937800 -0.537817
O12   O     O_R   0.441110 0.093720 0.087350 -0.538691
O13   O     O_R   0.266330 0.939630 0.062280 -0.540769
C65   C     C_R   0.609862 0.116571 0.114880 0.691851
O14   O     O_R   0.445750 0.069950 0.939820 -0.540862
O15   O     O_R   0.271000 0.915700 0.913700 -0.535939
C66   C     C_R   0.615133 0.085325 0.918836 0.702644
O16   O     O_R   0.770530 0.084400 0.086380 -0.537434
O17   O     O_3   0.602830 0.949510 0.991680 -0.369455
V3    V     V_3+5 0.329710 0.009370 0.001550 1.426304
O18   O     O_R   0.940990 0.906170 0.912570 -0.538928
C67   C     C_R   0.109704 0.884539 0.884408 0.692355
O19   O     O_R   0.936350 0.929940 0.060100 -0.544863
C68   C     C_R   0.104211 0.914520 0.081314 0.706911
V4    V     V_3+5 0.829160 0.990450 0.998310 1.420311
O20   O     O_3   0.105910 0.050480 0.008320 -0.367314
N1    N     N_2   0.987987 0.860795 0.543980 -0.523249
H29   H     H_    0.044841 0.816465 0.500287 0.256148
C69   C     C_3   0.796578 0.883138 0.530019 -0.558335
H30   H     H_    0.794216 0.893870 0.476536 0.202577
H31   H     H_    0.752242 0.939288 0.572274 0.199399
H32   H     H_    0.692981 0.834149 0.528724 0.192570
O21   O     O_3   0.228135 0.525948 0.702909 -0.574336
C70   C     C_3   0.101213 0.466965 0.713942 0.044210
H33   H     H_    0.996977 0.452401 0.669450 0.166182
H34   H     H_    0.018620 0.486009 0.766177 0.102505
C71   C     C_3   0.213839 0.391618 0.708070 -0.307592
H35   H     H_    0.285930 0.373297 0.654590 0.224348
H36   H     H_    0.316223 0.406673 0.753454 0.210687
C72   C     C_3   0.096298 0.320181 0.712543 -0.815887
H37   H     H_    0.028724 0.333925 0.766979 0.249460
H38   H     H_    0.192486 0.268278 0.705323 0.235737
H39   H     H_    0.989399 0.302769 0.668229 0.240703
N2    N     N_2   0.574613 0.244819 0.524933 -0.549997
H40   H     H_    0.648183 0.192256 0.502051 0.253149
C73   C     C_3   0.376370 0.239793 0.502216 -0.547965
H41   H     H_    0.369220 0.215453 0.441923 0.202355
H42   H     H_    0.310193 0.300082 0.519629 0.217441
H43   H     H_    0.293184 0.199548 0.525753 0.190184
O22   O     O_3   0.321857 0.651212 0.961146 -0.573648
C74   C     C_3   0.197480 0.598480 0.982862 0.067834
H44   H     H_    0.262004 0.588569 0.031557 0.154025
H45   H     H_    0.186014 0.538295 0.941027 0.105680
C75   C     C_3   0.997386 0.634775 0.003908 -0.319501
H46   H     H_    0.011369 0.695730 0.043983 0.213545
H47   H     H_    0.924026 0.639929 0.954879 0.188181
C76   C     C_3   0.873668 0.582814 0.036925 -0.823038
H48   H     H_    0.860577 0.520963 0.998256 0.224663
H49   H     H_    0.727877 0.608644 0.048659 0.239839
H50   H     H_    0.937662 0.580574 0.088591 0.231292

loop_
_geom_bond_atom_site_label_1
_geom_bond_atom_site_label_2
_ccdc_geom_bond_type
C27   C32   A    
C54   C55   A    
C7    O22   S    
C48   C49   A    
C37   H15   S    
C7    C8    A    
C12   C15   A    
C1    O6    A    
C71   C72   S    
C70   H33   S    
C72   H39   S    
C74   H44   S    
C69   H30   S    
C52   C53   A    
C15   H3    S    
C20   C21   A    
C18   H5    S    
O12   V3    S    
C15   C16   A    
C16   C17   A    
C75   H47   S    
O14   C66   A    
O5    C3    A    
C21   C22   A    
C69   H31   S    
C48   N2    S    
V2    O10   S    
C6    C7    A    
C76   H50   S    
C3    C20   S    
O1    C2    A    
C11   C67   S    
C54   H25   S    
O8    V2    S    
C51   C52   A    
C62   C63   A    
C43   C44   A    
C17   N1    S    
C11   C12   A    
C73   H43   S    
O21   C70   S    
C45   C46   A    
C34   H11   S    
C53   H24   S    
C50   H18   S    
O15   V3    S    
O13   C68   A    
C1    C49   S    
C19   H6    S    
C55   C56   A    
C41   C42   A    
O11   C66   A    
C38   C41   A    
C16   H4    S    
O17   V4    S    
O9    C4    A    
C56   C60   A    
C19   C24   A    
C44   C45   A    
C8    H2    S    
C41   H16   S    
C74   H45   S    
C62   H27   S    
C59   C64   A    
C5    C6    A    
C22   C25   A    
C23   C28   A    
C2    C60   S    
C49   C50   A    
C42   C43   A    
C75   C76   S    
C42   H17   S    
C73   H41   S    
C58   C59   A    
O4    C2    A    
O19   V4    S    
C53   C54   A    
C5    O21   S    
C69   H32   S    
C72   H38   S    
C13   C14   A    
C28   C29   A    
C29   C34   A    
C35   H14   S    
C4    C14   S    
C65   O16   A    
C35   C36   A    
O2    C1    A    
C26   C27   A    
O13   V3    S    
C17   C18   A    
C52   H23   S    
C30   C31   A    
C76   H48   S    
C63   C64   A    
C37   C38   A    
C33   C34   A    
C61   C62   A    
C39   C44   A    
C12   C13   A    
N1    H29   S    
O3    C4    A    
N2    C73   S    
O14   V3    S    
O1    V2    S    
C26   H9    S    
C23   C24   A    
C55   C57   A    
C35   C40   A    
O6    V2    S    
O18   V4    S    
O9    V2    S    
C10   C14   A    
C25   C26   A    
C71   H35   S    
C36   C66   S    
C70   C71   S    
O15   C67   A    
C22   C23   A    
C74   C75   S    
C27   C28   A    
C31   H13   S    
O17   V3    S    
O7    V1    S    
C13   C18   A    
C29   C30   A    
C19   C20   A    
C33   C68   S    
C73   H42   S    
O22   C74   S    
C71   H36   S    
C70   H34   S    
O5    V1    S    
O16   V4    S    
V4    O20   S    
C72   H37   S    
C40   C47   A    
C5    C10   A    
C51   H22   S    
C39   C40   A    
C9    C11   A    
C43   C48   A    
C57   C65   S    
C46   C47   A    
C32   H10   S    
V1    O10   S    
O19   C68   A    
C25   H8    S    
C58   C61   A    
C57   C58   A    
C21   H7    S    
O12   C65   A    
H21   C63   S    
C59   C60   A    
C24   C31   A    
C75   H46   S    
C76   H49   S    
O7    V2    S    
C36   C37   A    
C47   H20   S    
N1    C69   S    
C64   H28   S    
N2    H40   S    
C38   C39   A    
O4    V1    S    
C8    C9    A    
C61   H26   S    
C32   C33   A    
C51   C56   A    
C45   C50   A    
O3    V1    S    
O11   V4    S    
C6    H1    S    
C46   H19   S    
C9    C10   A    
V3    O20   S    
O18   C67   A    
O8    C3    A    
C30   H12   S    
O2    V1    S    
