data_str_m3_o14_o24_f0_pcu.sym.79
_audit_creation_date              2012-12-10T17:49:43-0500
_audit_creation_method            fapswitch 2.2
_symmetry_space_group_name_H-M    P1
_symmetry_Int_Tables_number       1
_space_group_crystal_system       triclinic
_cell_length_a                    10.475605
_cell_length_b                    10.599895
_cell_length_c                    9.983236
_cell_angle_alpha                 88.855809
_cell_angle_beta                  91.236611
_cell_angle_gamma                 91.17565
_cell_volume                      1107.83873479

loop_
_atom_site_label
_atom_site_type_symbol
_atom_type_description
_atom_site_fract_x
_atom_site_fract_y
_atom_site_fract_z
_atom_type_partial_charge
C1    C     C_R   0.504764 0.261363 0.501140 0.857583
C2    C     C_R   0.618743 0.066111 0.548796 0.091600
C3    C     C_R   0.509422 0.129349 0.502772 -0.132849
C4    C     C_R   0.257588 0.499098 0.498874 0.827873
C5    C     C_R   0.401550 0.067500 0.452603 -0.228688
C6    C     C_R   0.395296 0.937934 0.452811 0.156444
C7    C     C_R   0.504284 0.872135 0.497396 -0.147073
C8    C     C_R   0.299419 0.381280 0.138794 -0.148006
C9    C     C_R   0.183678 0.360502 0.071344 -0.270790
C10   C     C_R   0.179721 0.368534 0.932484 -0.156672
C11   C     C_R   0.296585 0.370636 0.866212 0.203596
C12   C     C_3   0.957531 0.607258 0.451283 -0.194380
C13   C     C_R   0.401179 0.438235 0.928350 0.084613
C14   C     C_R   0.401661 0.440495 0.072072 0.152548
C15   C     C_R   0.594343 0.557426 0.071999 -0.109904
C16   C     C_R   0.499431 0.739162 0.498931 0.864402
C17   C     C_R   0.594117 0.557777 0.929397 -0.113641
C18   C     C_R   0.742203 0.498088 0.501261 0.829856
C19   C     C_3   0.041893 0.385540 0.549436 -0.207303
C20   C     C_3   0.953514 0.401668 0.424759 -0.175523
C21   C     C_3   0.877273 0.495718 0.503079 0.041240
C22   C     C_3   0.962658 0.479345 0.627818 -0.149658
C23   C     C_3   0.036555 0.513490 0.372851 -0.145122
C24   C     C_3   0.045591 0.591080 0.576025 -0.162678
C25   C     C_3   0.270265 0.875214 0.407814 -0.382995
C26   C     C_3   0.162474 0.905897 0.501953 -0.913867
C27   C     C_3   0.321372 0.251068 0.789899 -0.330574
C28   C     C_3   0.250720 0.130747 0.838622 -0.955768
C29   C     C_3   0.122187 0.497398 0.497550 0.051668
C30   C     C_R   0.730074 0.130912 0.595175 -0.176956
C31   C     C_R   0.837660 0.064466 0.637409 -0.136228
C32   C     C_R   0.836325 0.933314 0.633455 -0.150805
C33   C     C_R   0.727585 0.868304 0.586976 -0.174764
C34   C     C_R   0.616904 0.934218 0.544743 0.069649
H1    H     H_    0.911072 0.324306 0.363866 0.137320
H2    H     H_    0.928130 0.465418 0.731532 0.135224
H3    H     H_    0.087402 0.666972 0.639096 0.138916
H4    H     H_    0.916972 0.696619 0.411171 0.129467
H5    H     H_    0.070549 0.528590 0.269157 0.150765
H6    H     H_    0.320400 0.121296 0.415951 0.139740
H7    H     H_    0.735180 0.232791 0.598447 0.137438
H8    H     H_    0.922350 0.114842 0.672814 0.126580
H9    H     H_    0.073202 0.857523 0.467962 0.252321
H10   H     H_    0.186818 0.873740 0.605753 0.259135
H11   H     H_    0.144448 0.008725 0.501892 0.258596
H12   H     H_    0.919827 0.881689 0.666185 0.137432
H13   H     H_    0.244929 0.909490 0.304890 0.205562
H14   H     H_    0.276035 0.771177 0.403407 0.213460
H15   H     H_    0.266960 0.115455 0.948036 0.279491
H16   H     H_    0.146767 0.135658 0.815618 0.250800
H17   H     H_    0.287483 0.048132 0.785760 0.267611
H18   H     H_    0.293242 0.265606 0.683264 0.219239
H19   H     H_    0.423551 0.227767 0.804570 0.238503
H20   H     H_    0.731599 0.766589 0.584005 0.136094
H21   H     H_    0.671539 0.604978 0.125634 0.146712
H22   H     H_    0.307737 0.347262 0.239971 0.199451
H23   H     H_    0.100691 0.326790 0.125201 0.157232
H24   H     H_    0.093162 0.336520 0.881331 0.145987
H25   H     H_    0.671021 0.605595 0.876992 0.143984
H26   H     H_    0.080077 0.294833 0.588524 0.119410
N1    N     N_R   0.498800 0.498800 0.142780 -0.114679
N2    N     N_R   0.498760 0.498720 0.857170 -0.119630
O1    O     O_R   0.500000 0.316780 0.614690 -0.648501
O2    O     O_R   0.499990 0.316750 0.385360 -0.623934
O3    O     O_R   0.313960 0.499980 0.614650 -0.621830
O4    O     O_R   0.313940 0.499960 0.385310 -0.648107
O5    O     O_R   0.500010 0.683250 0.614640 -0.604189
O6    O     O_R   0.500000 0.683220 0.385310 -0.615958
O7    O     O_R   0.686060 0.500040 0.614690 -0.635812
O8    O     O_R   0.686040 0.500020 0.385350 -0.616834
Zn1   Zn    Zn3+2 0.500010 0.500020 0.653130 0.926509
Zn2   Zn    Zn3+2 0.499990 0.499980 0.346870 0.929670

loop_
_geom_bond_atom_site_label_1
_geom_bond_atom_site_label_2
_ccdc_geom_bond_type
C18   O8    A    
C31   H8    S    
C18   C21   S    
C19   C20   S    
C8    H22   S    
C26   H10   S    
C12   C23   S    
C23   C29   S    
C10   H24   S    
C4    O3    A    
C28   H17   S    
C6    C25   S    
O7    Zn1   S    
C24   C29   S    
C26   H11   S    
C20   H1    S    
C28   H16   S    
O4    Zn2   S    
C13   N2    A    
C8    C9    A    
C30   H7    S    
C16   O6    A    
C9    C10   A    
C25   H13   S    
C9    H23   S    
C4    C29   S    
C2    C34   A    
C18   O7    A    
C21   C22   S    
C1    O1    A    
C26   H9    S    
C33   C34   A    
C19   C22   S    
C25   C26   S    
O3    Zn1   S    
C14   N1    A    
C12   C21   S    
C1    C3    S    
C15   H21   S    
C17   N2    A    
C28   H15   S    
C31   C32   A    
C20   C23   S    
C11   C27   S    
C30   C31   A    
O6    Zn2   S    
C24   H3    S    
C15   N1    A    
C16   O5    A    
C25   H14   S    
C17   H25   S    
N1    Zn2   S    
C7    C16   S    
O1    Zn1   S    
C7    C34   A    
C22   C24   S    
C19   C29   S    
C1    O2    A    
C27   H18   S    
C33   H20   S    
C15   C17   A    
C8    C14   A    
C32   H12   S    
C3    C5    A    
C27   H19   S    
C6    C7    A    
C19   H26   S    
C22   H2    S    
C12   C24   S    
C2    C30   A    
C32   C33   A    
C2    C3    A    
C4    O4    A    
C11   C13   A    
C5    C6    A    
C23   H5    S    
N2    Zn1   S    
O5    Zn1   S    
O2    Zn2   S    
C12   H4    S    
C10   C11   A    
C20   C21   S    
C5    H6    S    
C27   C28   S    
O8    Zn2   S    
C13   C14   A    
