data_str_m3_o10_o29_f0_pcu.sym.139
_audit_creation_date              2012-12-10T16:59:14-0500
_audit_creation_method            fapswitch 2.2
_symmetry_space_group_name_H-M    P1
_symmetry_Int_Tables_number       1
_space_group_crystal_system       triclinic
_cell_length_a                    7.745531
_cell_length_b                    8.309255
_cell_length_c                    27.714208
_cell_angle_alpha                 90.873015
_cell_angle_beta                  84.985836
_cell_angle_gamma                 94.062986
_cell_volume                      1772.31016678

loop_
_atom_site_label
_atom_site_type_symbol
_atom_type_description
_atom_site_fract_x
_atom_site_fract_y
_atom_site_fract_z
_atom_type_partial_charge
C1    C     C_R   0.546638 0.796447 0.504254 0.828943
C2    C     C_R   0.598845 0.611273 0.126491 -0.009016
C3    C     C_R   0.503361 0.510726 0.646492 -0.073873
C4    C     C_R   0.497456 0.493430 0.353356 -0.044497
C5    C     C_R   0.593151 0.631071 0.025160 0.100800
C6    C     C_R   0.413562 0.381405 0.974429 0.099204
C7    C     C_R   0.426482 0.367399 0.024893 -0.027090
C8    C     C_R   0.581784 0.644349 0.974558 -0.019541
C9    C     C_R   0.511109 0.494280 0.050266 0.077744
C10   C     C_R   0.495823 0.517944 0.949274 0.091336
C11   C     C_R   0.687754 0.748684 0.051580 -0.173495
C12   C     C_R   0.454520 0.204752 0.507913 0.836910
C13   C     C_R   0.316585 0.264883 0.948277 -0.178922
C14   C     C_R   0.688836 0.739476 0.101254 -0.050174
C15   C     C_R   0.313208 0.274792 0.898693 -0.031117
C16   C     C_R   0.501326 0.501953 0.593950 0.885286
C17   C     C_R   0.498820 0.498840 0.406018 0.868541
C18   C     C_R   0.647356 0.783844 0.948751 -0.291248
C19   C     C_R   0.363614 0.226691 0.050448 -0.286293
C20   C     C_2   0.573289 0.958636 0.521702 0.036776
C21   C     C_2   0.433870 0.045297 0.528102 0.094196
C22   C     C_R   0.585740 0.653598 0.821205 0.589742
C23   C     C_R   0.491842 0.527691 0.898338 -0.099939
C24   C     C_R   0.420578 0.357221 0.178210 0.566461
C25   C     C_R   0.406236 0.407865 0.823102 0.505361
C26   C     C_R   0.593478 0.606770 0.176773 0.552628
C27   C     C_R   0.654029 0.490739 0.718753 -0.088429
C28   C     C_R   0.650340 0.455614 0.274586 -0.080319
C29   C     C_R   0.654465 0.482137 0.668589 -0.133947
C30   C     C_R   0.649863 0.461328 0.324598 -0.196140
C31   C     C_R   0.353201 0.550570 0.675001 -0.169224
C32   C     C_R   0.345191 0.518739 0.331352 -0.209410
C33   C     C_R   0.353511 0.559937 0.724952 -0.052221
C34   C     C_R   0.513753 0.484720 0.101248 -0.124316
C35   C     C_R   0.346360 0.513716 0.281125 -0.070157
C36   C     C_R   0.503246 0.528983 0.746848 0.279508
C37   C     C_R   0.499170 0.482612 0.252828 0.292301
C38   C     C_R   0.575844 0.661452 0.872360 -0.164301
C39   C     C_R   0.431525 0.349764 0.127041 -0.170555
C40   C     C_R   0.644795 0.795439 0.898685 0.483583
C41   C     C_R   0.365824 0.214809 0.100480 0.481988
C42   C     C_R   0.403523 0.402531 0.873316 0.002175
H1    H     H_    0.235459 0.574626 0.658800 0.192423
H2    H     H_    0.769674 0.466049 0.735875 0.154942
H3    H     H_    0.760375 0.834683 0.119881 0.217805
H4    H     H_    0.239619 0.180553 0.880250 0.223486
H5    H     H_    0.765122 0.849264 0.035155 0.152857
H6    H     H_    0.238350 0.165220 0.964983 0.153389
H7    H     H_    0.697681 0.889351 0.967084 0.193568
H8    H     H_    0.316403 0.120468 0.031840 0.206827
H9    H     H_    0.638539 0.130949 0.815408 0.394468
H10   H     H_    0.250974 0.778008 0.100394 0.380751
H11   H     H_    0.699113 0.842937 0.611109 0.363830
H12   H     H_    0.226167 0.543420 0.352819 0.163317
H13   H     H_    0.212474 0.227210 0.618987 0.359560
H14   H     H_    0.014044 0.382040 0.462839 0.202166
H15   H     H_    0.985303 0.616744 0.537345 0.255526
H16   H     H_    0.236990 0.589520 0.746808 0.161724
H17   H     H_    0.229496 0.535209 0.264134 0.153381
H18   H     H_    0.768823 0.440503 0.340641 0.165864
H19   H     H_    0.771866 0.451933 0.647260 0.195445
H20   H     H_    0.768418 0.431422 0.252589 0.154519
N1    N     N_R   0.499088 0.530083 0.798333 -0.369873
N2    N     N_R   0.503196 0.482655 0.201329 -0.370067
N3    N     N_2   0.950320 0.457960 0.486880 -0.146392
N4    N     N_2   0.049680 0.542040 0.513120 -0.130582
O1    O     O_R   0.389250 0.738570 0.503220 -0.588693
O2    O     O_2   0.325835 0.243746 0.205127 -0.453461
O3    O     O_2   0.675206 0.727036 0.201267 -0.505433
O4    O     O_2   0.319781 0.289955 0.798862 -0.504769
O5    O     O_2   0.732730 0.114583 0.910790 -0.335219
O6    O     O_2   0.893680 0.971688 0.845608 -0.240676
O7    O     O_3   0.576845 0.039836 0.833877 -0.491771
O8    O     O_2   0.425502 0.975334 0.159973 -0.244193
O9    O     O_2   0.121586 0.032911 0.153670 -0.239872
O10   O     O_3   0.280662 0.880399 0.082738 -0.597962
O11   O     O_2   0.913934 0.041542 0.515136 -0.230338
O12   O     O_R   0.610750 0.261430 0.496780 -0.588025
O13   O     O_2   0.740830 0.158027 0.583497 -0.251082
O14   O     O_3   0.801150 0.855207 0.586993 -0.490004
O15   O     O_2   0.169163 0.861896 0.572823 -0.206355
O16   O     O_2   0.385641 0.983676 0.623268 -0.314252
O17   O     O_3   0.162480 0.167527 0.591693 -0.447565
O18   O     O_R   0.678390 0.711630 0.494810 -0.575971
O19   O     O_R   0.321610 0.288370 0.505190 -0.564876
O20   O     O_R   0.355440 0.513440 0.575450 -0.605733
O21   O     O_R   0.644560 0.486560 0.424550 -0.625548
O22   O     O_R   0.644590 0.486500 0.567040 -0.592561
O23   O     O_R   0.355410 0.513500 0.432960 -0.633969
O24   O     O_2   0.683609 0.764508 0.794073 -0.448678
S1    S     S_3+6 0.717979 0.985525 0.872437 0.050807
S2    S     S_3+6 0.296720 0.023123 0.126189 0.046759
S3    S     S_3+6 0.762147 0.010292 0.552174 0.124713
S4    S     S_3+6 0.285933 0.010301 0.580241 0.101430
Zn1   Zn    Zn3+2 0.306940 0.517990 0.505620 1.051597
Zn2   Zn    Zn3+2 0.693060 0.482010 0.494380 1.043505

loop_
_geom_bond_atom_site_label_1
_geom_bond_atom_site_label_2
_ccdc_geom_bond_type
C16   O20   A    
C20   S3    S    
O22   Zn2   S    
C33   H16   S    
O16   S4    D    
C27   C29   A    
C11   H5    S    
H15   N4    S    
C24   C39   A    
C39   C41   A    
C1    O18   A    
C23   C42   A    
C31   H1    S    
C12   O19   A    
C35   C37   A    
O13   S3    D    
C25   N1    A    
C11   C14   A    
C21   S4    S    
H14   N3    S    
C22   C38   A    
C33   C36   A    
C35   H17   S    
O18   Zn2   S    
O8    S2    D    
C3    C29   A    
C26   N2    A    
C18   C40   A    
C22   N1    A    
C27   H2    S    
N3    Zn2   S    
O12   Zn2   S    
C30   H18   S    
C31   C33   A    
C36   N1    S    
C2    C34   A    
C24   N2    A    
O1    Zn1   S    
C32   H12   S    
C14   H3    S    
C29   H19   S    
C34   C39   A    
C32   C35   A    
H11   O14   S    
C17   O23   A    
O7    S1    S    
O6    S1    D    
O17   S4    S    
C12   C21   S    
C8    C18   A    
C12   O12   A    
O23   Zn1   S    
C5    C9    A    
C5    C8    A    
O21   Zn2   S    
C22   O24   S    
C2    C26   A    
C3    C31   A    
C4    C32   A    
O9    S2    D    
O10   S2    S    
C4    C17   S    
C7    C19   A    
C13   C15   A    
C9    C34   A    
C10   C23   A    
H13   O17   S    
C37   N2    S    
C7    C9    A    
C1    C20   S    
C17   O21   A    
H9    O7    S    
C15   C42   A    
H10   O10   S    
C25   C42   A    
C6    C10   A    
C13   H6    S    
C5    C11   A    
C6    C7    A    
C27   C36   A    
C23   C38   A    
C28   C30   A    
C6    C13   A    
C38   C40   A    
O15   S4    D    
O19   Zn1   S    
C19   H8    S    
C28   C37   A    
O11   S3    D    
C1    O1    A    
C40   S1    S    
C2    C14   A    
O20   Zn1   S    
C24   O2    S    
C41   S2    S    
O5    S1    D    
C20   C21   D    
C8    C10   A    
N3    N4    D    
C16   O22   A    
C26   O3    S    
C25   O4    S    
C15   H4    S    
O14   S3    S    
C4    C30   A    
C3    C16   S    
C19   C41   A    
C18   H7    S    
N4    Zn1   S    
C28   H20   S    
