data_str_m3_o5_o29_f0_pcu.sym.28
_audit_creation_date              2013-03-05T16:48:41-0500
_audit_creation_method            fapswitch 2.2
_symmetry_space_group_name_H-M    P1
_symmetry_Int_Tables_number       1
_space_group_crystal_system       triclinic
_cell_length_a                    27.895369
_cell_length_b                    8.912525
_cell_length_c                    8.079534
_cell_angle_alpha                 90.423998
_cell_angle_beta                  90.48444
_cell_angle_gamma                 89.984256
_cell_volume                      2008.59214297

loop_
_atom_site_label
_atom_site_type_symbol
_atom_site_description
_atom_site_fract_x
_atom_site_fract_y
_atom_site_fract_z
_atom_type_partial_charge
O1    O     O_R   0.500000 0.285350 0.636850 -0.616625
O2    O     O_R   0.500000 0.714650 0.363150 -0.616632
O3    O     O_R   0.500000 0.714650 0.636850 -0.603235
O4    O     O_R   0.500000 0.285350 0.363150 -0.603266
C1    C     C_R   0.500001 0.217928 0.499607 0.940112
C2    C     C_R   0.499999 0.782072 0.500392 0.940109
O5    O     O_R   0.428760 0.500000 0.636860 -0.584393
O6    O     O_R   0.571240 0.500000 0.363140 -0.584329
O7    O     O_R   0.571240 0.500000 0.636860 -0.586260
O8    O     O_R   0.428760 0.500000 0.363140 -0.586214
C3    C     C_R   0.405690 0.499513 0.499196 0.937859
C4    C     C_R   0.594310 0.500529 0.500812 0.937827
Zn1   Zn    Zn3+2 0.500000 0.500000 0.682780 1.093933
Zn2   Zn    Zn3+2 0.500000 0.500000 0.317220 1.093947
C5    C     C_R   0.176886 0.374754 0.446608 0.587661
C6    C     C_R   0.823134 0.624516 0.554643 0.587640
C7    C     C_R   0.177388 0.635304 0.515331 0.584863
C8    C     C_R   0.822579 0.364007 0.485716 0.584925
O9    O     O_2   0.201584 0.245518 0.429812 -0.423476
O10   O     O_2   0.798474 0.753842 0.571316 -0.423381
O11   O     O_2   0.202801 0.763223 0.532142 -0.425582
O12   O     O_2   0.797121 0.236221 0.468472 -0.425757
N1    N     N_R   0.201023 0.504275 0.482897 -0.360405
N2    N     N_R   0.798972 0.495110 0.518056 -0.360403
C9    C     C_R   0.277012 0.555540 0.627415 -0.094115
C10   C     C_R   0.723026 0.444319 0.373023 -0.094140
C11   C     C_R   0.277990 0.447465 0.352202 -0.090767
C12   C     C_R   0.721971 0.552148 0.648342 -0.090739
C13   C     C_R   0.326814 0.558219 0.631714 0.240776
C14   C     C_R   0.673221 0.441877 0.368437 0.240743
C15   C     C_R   0.327710 0.440804 0.357047 0.241359
C16   C     C_R   0.672259 0.559080 0.643207 0.241512
C17   C     C_R   0.252438 0.502637 0.487401 0.152800
C18   C     C_R   0.747559 0.496951 0.513246 0.152819
C19   C     C_R   0.101458 0.505037 0.483926 -0.157458
C20   C     C_R   0.898538 0.493993 0.517851 -0.157466
C21   C     C_R   0.126714 0.375267 0.432417 -0.106439
C22   C     C_R   0.873293 0.623815 0.569254 -0.106384
C23   C     C_R   0.127130 0.636759 0.528328 -0.109962
C24   C     C_R   0.872851 0.362355 0.473227 -0.110005
C25   C     C_R   0.101020 0.251207 0.369062 0.480380
C26   C     C_R   0.898986 0.747742 0.632929 0.480293
C27   C     C_R   0.101680 0.764754 0.581966 0.475484
C28   C     C_R   0.898303 0.234258 0.419879 0.475546
C29   C     C_R   0.353013 0.499055 0.496437 -0.213999
C30   C     C_R   0.646989 0.500996 0.503659 -0.214061
H1    H     H_    0.258920 0.406603 0.243564 0.199754
H2    H     H_    0.741009 0.592837 0.757126 0.199751
H3    H     H_    0.257144 0.597659 0.732607 0.197755
H4    H     H_    0.742925 0.402229 0.267887 0.197727
C31   C     C_R   0.974482 0.367524 0.454403 0.024199
C32   C     C_R   0.025518 0.631362 0.547749 0.024221
C33   C     C_R   0.974804 0.626971 0.561035 0.024722
C34   C     C_R   0.025199 0.371897 0.441153 0.024714
C35   C     C_R   0.949427 0.496203 0.510824 0.086346
C36   C     C_R   0.050573 0.502716 0.491231 0.086338
C37   C     C_R   0.947922 0.237206 0.414623 -0.260002
C38   C     C_R   0.052068 0.761700 0.587508 -0.260042
C39   C     C_R   0.948602 0.747822 0.628911 -0.259353
C40   C     C_R   0.051405 0.251015 0.373350 -0.259251
H5    H     H_    0.964522 0.133055 0.379296 0.175842
H6    H     H_    0.035465 0.865803 0.622998 0.175853
H7    H     H_    0.965488 0.844151 0.685076 0.178474
H8    H     H_    0.034521 0.154577 0.317418 0.178434
C41   C     C_1   0.500000 0.065209 0.499436 -0.127632
C42   C     C_1   0.499999 0.934791 0.500564 -0.127598
N3    N     N_1   0.500000 0.500000 0.073640 0.023679
N4    N     N_1   0.500000 0.500000 0.926360 0.023687
Br1   Br    Br    0.357417 0.341849 0.171600 -0.372122
Br2   Br    Br    0.642526 0.658208 0.828497 -0.371988
Br3   Br    Br    0.355504 0.652932 0.823219 -0.373600
Br4   Br    Br    0.644574 0.347569 0.176625 -0.373677
Cl1   Cl    Cl    0.128021 0.097313 0.266359 -0.441951
Cl2   Cl    Cl    0.871972 0.901594 0.735665 -0.442132
Cl3   Cl    Cl    0.128940 0.931581 0.656374 -0.438732
Cl4   Cl    Cl    0.871050 0.067387 0.345567 -0.438512

loop_
_geom_bond_atom_site_label_1
_geom_bond_atom_site_label_2
_geom_bond_distance
_ccdc_geom_bond_type
C38   H6    1.075009 S    
O3    C2    1.259531 A    
C33   C39   1.411628 A    
C34   C40   1.411664 A    
C11   C17   1.395741 A    
O5    C3    1.280277 A    
C7    N1    1.365671 A    
O1    C1    1.257289 A    
C19   C21   1.415840 A    
C22   C26   1.408573 A    
C10   H4    1.083289 S    
C9    C13   1.389604 A    
C7    C23   1.406827 A    
C28   Cl4   1.769195 S    
C8    C24   1.406917 A    
C5    C21   1.403284 A    
C20   C24   1.417637 A    
O7    Zn1   2.024681 S    
C27   C38   1.385329 A    
C5    O9    1.348574 S    
C10   C18   1.396834 A    
N1    C17   1.434478 S    
Zn2   N3    1.968013 S    
C31   C37   1.411427 A    
C24   C28   1.410932 A    
O3    Zn1   1.951426 S    
C6    O10   1.348591 S    
C5    N1    1.365257 A    
C12   C18   1.395691 A    
C6    N2    1.365228 A    
O4    Zn2   1.951427 S    
O2    C2    1.257289 A    
C33   C35   1.418669 A    
C27   Cl3   1.769201 S    
C34   C36   1.418704 A    
C26   Cl2   1.769248 S    
C11   C15   1.388442 A    
N3    N4    1.189953 T    
C12   C16   1.388374 A    
C4    C30   1.469489 S    
O8    Zn2   2.024684 S    
C16   Br2   1.926314 S    
N2    C18   1.434467 S    
C13   C29   1.418273 A    
C19   C23   1.417621 A    
C15   Br1   1.926281 S    
C2    C42   1.361104 S    
C28   C37   1.385410 A    
O6    C4    1.280340 A    
C32   C38   1.411409 A    
C1    C41   1.361104 S    
C10   C14   1.389698 A    
C8    N2    1.365716 A    
C3    C29   1.469451 S    
O1    Zn1   1.946035 S    
C32   C33   1.420224 A    
C11   H1    1.083296 S    
C12   H2    1.083305 S    
O6    Zn2   2.018514 S    
C19   C36   1.421352 A    
C8    O12   1.348043 S    
C16   C30   1.419238 A    
C14   C30   1.418267 A    
C25   C40   1.384754 A    
O4    C1    1.259531 A    
C26   C39   1.384707 A    
C14   Br4   1.925347 S    
C37   H5    1.074998 S    
C39   H7    1.075049 S    
C40   H8    1.075032 S    
C31   C34   1.420298 A    
C20   C22   1.415810 A    
C20   C35   1.421346 A    
C31   C35   1.417311 A    
C21   C25   1.408593 A    
O2    Zn2   1.946035 S    
O7    C4    1.278460 A    
C9    H3    1.083298 S    
O8    C3    1.278512 A    
C25   Cl1   1.769254 S    
O5    Zn1   2.018517 S    
C23   C27   1.410879 A    
C41   C42   1.162459 T    
C15   C29   1.419213 A    
C9    C17   1.396818 A    
C32   C36   1.417332 A    
C6    C22   1.403199 A    
C13   Br3   1.925409 S    
Zn1   N4    1.968013 S    
C7    O11   1.348083 S    
