data_str_m9_o5_o16_f0_sra.sym.34
_audit_creation_date              2012-12-11T17:14:04-0500
_audit_creation_method            fapswitch 2.2
_symmetry_space_group_name_H-M    P1
_symmetry_Int_Tables_number       1
_space_group_crystal_system       triclinic
_cell_length_a                    18.217065
_cell_length_b                    7.089957
_cell_length_c                    12.985033
_cell_angle_alpha                 90.068846
_cell_angle_beta                  72.102434
_cell_angle_gamma                 89.981161
_cell_volume                      1595.96173489

loop_
_atom_site_label
_atom_site_type_symbol
_atom_type_description
_atom_site_fract_x
_atom_site_fract_y
_atom_site_fract_z
_atom_type_partial_charge
O1    O     O_R   0.453880 0.506200 0.150010 -0.537834
O2    O     O_R   0.546120 0.006200 0.849990 -0.535929
O3    O     O_R   0.604080 0.177770 0.007280 -0.539113
O4    O     O_R   0.395920 0.677770 0.992720 -0.539659
C1    C     C_R   0.636002 0.344479 0.001710 0.734858
C2    C     C_R   0.363996 0.844516 0.998297 0.729452
O5    O     O_R   0.458010 0.176640 0.159130 -0.541844
O6    O     O_R   0.541990 0.676640 0.840870 -0.540483
O7    O     O_R   0.399010 0.004010 0.002930 -0.535657
O8    O     O_R   0.600990 0.504010 0.997070 -0.535416
C3    C     C_R   0.442938 0.345413 0.201833 0.690229
C4    C     C_R   0.557060 0.845069 0.798151 0.694067
O9    O     O_3   0.480810 0.338440 0.948570 -0.375323
O10   O     O_3   0.519190 0.838440 0.051430 -0.376438
V1    V     V_3+5 0.503560 0.064490 0.009540 1.441985
V2    V     V_3+5 0.496440 0.564490 0.990460 1.442082
C5    C     C_R   0.584400 0.861127 0.499989 -0.163243
C6    C     C_R   0.415297 0.388075 0.499288 -0.163879
H1    H     H_    0.486447 0.854376 0.643125 0.107246
H2    H     H_    0.513256 0.383221 0.356117 0.107360
H3    H     H_    0.664052 0.870358 0.291734 0.120352
H4    H     H_    0.335507 0.408357 0.707229 0.120503
H5    H     H_    0.548646 0.863849 0.446925 0.122210
H6    H     H_    0.450910 0.404249 0.551999 0.122709
C7    C     C_R   0.593646 0.852826 0.681272 -0.036128
C8    C     C_R   0.406321 0.354982 0.318668 -0.032059
C9    C     C_R   0.957039 0.853584 0.387325 0.418427
C10   C     C_R   0.043086 0.339438 0.613051 0.385970
C11   C     C_R   0.923872 0.849706 0.499351 -0.126046
C12   C     C_R   0.076339 0.327679 0.501201 -0.091398
C13   C     C_R   0.844183 0.851409 0.546015 -0.150295
C14   C     C_R   0.155966 0.334149 0.454397 -0.157001
C15   C     C_R   0.794076 0.856857 0.481682 0.063404
C16   C     C_R   0.205933 0.352951 0.518382 0.052769
C17   C     C_R   0.827507 0.861219 0.367035 0.003666
C18   C     C_R   0.172417 0.365708 0.632813 0.010878
C19   C     C_R   0.711915 0.857766 0.527319 0.096593
C20   C     C_R   0.288037 0.359517 0.472604 0.089590
C21   C     C_R   0.665217 0.862035 0.457390 0.136954
C22   C     C_R   0.334563 0.380055 0.542109 0.139654
C23   C     C_R   0.699306 0.866754 0.345476 -0.204720
C24   C     C_R   0.300383 0.392720 0.653805 -0.205025
C25   C     C_R   0.778950 0.866629 0.300912 -0.167024
C26   C     C_R   0.220815 0.385412 0.698557 -0.169324
C27   C     C_R   0.674136 0.853969 0.640119 -0.186989
C28   C     C_R   0.325917 0.346635 0.360054 -0.208853
C29   C     C_R   0.548841 0.855953 0.611385 -0.182465
C30   C     C_R   0.450943 0.375968 0.388086 -0.181617
C31   C     C_R   0.908967 0.860097 0.320352 -0.213531
C32   C     C_R   0.091035 0.358279 0.679679 -0.196501
H7    H     H_    0.705180 0.850937 0.698576 0.113815
H8    H     H_    0.295009 0.330722 0.301935 0.110186
H9    H     H_    0.823949 0.847843 0.633061 0.178236
H10   H     H_    0.176273 0.324109 0.367509 0.169722
H11   H     H_    0.959838 0.844962 0.551935 0.213277
H12   H     H_    0.040511 0.312830 0.448873 0.190941
H13   H     H_    0.802037 0.870295 0.213542 0.106104
H14   H     H_    0.197656 0.395763 0.785752 0.106252
C33   C     C_1   0.216272 0.858719 0.000430 -0.118456
C34   C     C_1   0.783723 0.358774 0.999592 -0.112371
C35   C     C_1   0.283559 0.852576 0.999266 -0.173568
C36   C     C_1   0.716437 0.352531 0.000754 -0.166110
O11   O     O_R   0.899030 0.205490 0.002790 -0.537837
O12   O     O_R   0.100970 0.705490 0.997210 -0.538859
O13   O     O_R   0.042000 0.536370 0.840840 -0.536377
O14   O     O_R   0.958000 0.036370 0.159160 -0.535178
C37   C     C_R   0.056377 0.367881 0.797887 0.789719
C38   C     C_R   0.943627 0.868185 0.202124 0.794847
O15   O     O_R   0.895930 0.535070 0.992690 -0.538224
O16   O     O_R   0.104070 0.035070 0.007310 -0.537067
O17   O     O_R   0.953870 0.707520 0.150040 -0.539864
O18   O     O_R   0.046130 0.207520 0.849960 -0.537157
C39   C     C_R   0.864123 0.366774 0.998734 0.787146
C40   C     C_R   0.135874 0.866731 0.001284 0.788343
O19   O     O_3   0.019200 0.374340 0.051340 -0.374353
O20   O     O_3   0.980800 0.874340 0.948660 -0.372891
V3    V     V_3+5 0.996440 0.648350 0.990470 1.557828
V4    V     V_3+5 0.003560 0.148350 0.009530 1.562615
S1    S     S_3+6 0.058934 0.848938 0.333309 -0.049571
O21   O     O_2   0.082881 0.679359 0.261173 -0.353091
O22   O     O_2   0.085907 0.024643 0.268026 -0.356338
O23   O     O_3   0.099734 0.837596 0.433133 -0.519722
H15   H     H_    0.156029 0.837052 0.395816 0.360525
S2    S     S_3+6 0.941230 0.329913 0.667428 -0.021938
O24   O     O_2   0.918984 0.162152 0.741044 -0.325889
O25   O     O_2   0.912235 0.505754 0.731921 -0.356555
O26   O     O_3   0.899595 0.309881 0.568814 -0.499142
H16   H     H_    0.904067 0.436571 0.535433 0.333837

loop_
_geom_bond_atom_site_label_1
_geom_bond_atom_site_label_2
_ccdc_geom_bond_type
O14   C38   A    
O26   H16   S    
C31   C38   S    
C9    C11   A    
O12   V3    S    
O15   V3    S    
O1    C3    A    
S2    O26   S    
O2    C4    A    
C2    O7    A    
C18   C32   A    
C21   C23   A    
O5    C3    A    
C10   S2    S    
C5    H5    S    
C6    H6    S    
C2    C35   S    
O20   V4    S    
C9    S1    S    
H1    C29   S    
O16   V4    S    
C27   H7    S    
C28   H8    S    
C34   C39   S    
C34   C36   T    
C37   O18   A    
C5    C21   A    
C6    C22   A    
O18   V4    S    
C10   C32   A    
S2    O24   D    
C26   H14   S    
O13   C37   A    
C17   C31   A    
C13   C15   A    
O15   C39   A    
C12   C14   A    
C17   C25   A    
C32   C37   S    
C7    C29   A    
C8    C30   A    
C22   C24   A    
O6    V2    S    
C23   C25   A    
C24   C26   A    
C14   H10   S    
O14   V4    S    
C33   C35   T    
O13   V3    S    
O20   V3    S    
O4    C2    A    
S1    O22   D    
C25   H13   S    
O11   C39   A    
C3    C8    S    
C12   H12   S    
C15   C19   A    
C14   C16   A    
O4    V2    S    
O16   C40   A    
O6    C4    A    
O1    V2    S    
C13   H9    S    
O2    V1    S    
O19   V3    S    
C33   C40   S    
H2    C30   S    
H3    C23   S    
C18   C26   A    
C19   C27   A    
C7    C27   A    
O17   V3    S    
O3    V1    S    
C16   C20   A    
C5    C29   A    
S2    O25   D    
O3    C1    A    
C6    C30   A    
S1    O23   S    
C11   H11   S    
C4    C7    S    
C10   C12   A    
O7    V1    S    
C1    O8    A    
C19   C21   A    
O8    V2    S    
C20   C22   A    
H4    C24   S    
C38   O17   A    
O5    V1    S    
C15   C17   A    
C1    C36   S    
C16   C18   A    
O19   V4    S    
C20   C28   A    
C8    C28   A    
S1    O21   D    
C11   C13   A    
O23   H15   S    
O9    V2    S    
O12   C40   A    
O10   V1    S    
C9    C31   A    
O11   V4    S    
