data_str_m2_o41_o41_f0_fof.sym.92
_audit_creation_date              2012-10-26T17:13:11-0400
_audit_creation_method            fapswitch 2.2
_symmetry_space_group_name_H-M    P1
_symmetry_Int_Tables_number       1
_space_group_crystal_system       triclinic
_cell_length_a                    16.813251
_cell_length_b                    16.828919
_cell_length_c                    16.885716
_cell_angle_alpha                 67.818331
_cell_angle_beta                  68.478055
_cell_angle_gamma                 67.59063
_cell_volume                      3948.97876312

loop_
_atom_site_label
_atom_site_type_symbol
_atom_type_description
_atom_site_fract_x
_atom_site_fract_y
_atom_site_fract_z
_atom_type_partial_charge
C1    C     C_R   0.300008 0.026570 0.427708 -0.018634
C2    C     C_R   0.673056 0.050285 0.550577 0.021396
C3    C     C_R   0.008329 0.427992 0.309285 -0.012821
C4    C     C_R   0.007919 0.562157 0.685189 0.016445
C5    C     C_R   0.442773 0.320961 0.975287 0.001566
C6    C     C_R   0.566008 0.698919 0.981051 0.012368
C7    C     C_R   0.550946 0.022527 0.683401 -0.011634
C8    C     C_R   0.428773 0.027975 0.299843 0.021883
C9    C     C_R   0.694522 0.568689 0.982230 0.014800
C10   C     C_R   0.321734 0.457925 0.945209 0.010271
C11   C     C_R   0.044469 0.676582 0.547256 0.020918
C12   C     C_R   0.961459 0.320540 0.448547 0.001550
C13   C     C_R   0.433512 0.046689 0.434898 0.012936
C14   C     C_R   0.532712 0.049051 0.537211 0.011487
C15   C     C_R   0.001969 0.445642 0.449141 0.009496
C16   C     C_R   0.017934 0.544317 0.543633 0.011829
C17   C     C_R   0.457167 0.466308 0.960278 0.010233
C18   C     C_R   0.557387 0.564704 0.965596 0.012533
C19   C     C_R   0.028715 0.827922 0.564453 0.795758
C20   C     C_R   0.970060 0.171762 0.435721 0.807054
C21   C     C_R   0.830490 0.568435 0.016783 0.811384
C22   C     C_R   0.171686 0.436852 0.968334 0.794245
C23   C     C_R   0.568497 0.015094 0.830956 0.798276
C24   C     C_R   0.431550 0.984405 0.168767 0.825466
C25   C     C_R   0.432986 0.171507 0.976836 0.802707
C26   C     C_R   0.567486 0.830284 0.019078 0.791358
C27   C     C_R   0.981266 0.431559 0.169601 0.826495
C28   C     C_R   0.021760 0.567175 0.829193 0.785221
C29   C     C_R   0.169332 0.982762 0.431758 0.810600
C30   C     C_R   0.829114 0.021283 0.566912 0.792467
C31   C     C_R   0.388030 0.032178 0.387754 0.069629
C32   C     C_R   0.585624 0.040948 0.590482 0.062210
C33   C     C_R   0.989858 0.398445 0.402313 0.072284
C34   C     C_R   0.024317 0.594064 0.591938 0.062965
C35   C     C_R   0.407311 0.415095 0.959461 0.067248
C36   C     C_R   0.605175 0.610063 0.978543 0.064489
C37   C     C_R   0.261431 0.991764 0.389713 -0.135656
C38   C     C_R   0.732249 0.024233 0.605359 -0.148616
C39   C     C_R   0.979714 0.390452 0.264608 -0.148018
C40   C     C_R   0.029029 0.604447 0.731741 -0.144278
C41   C     C_R   0.396607 0.270808 0.964462 -0.134245
C42   C     C_R   0.605932 0.736672 0.014980 -0.148750
C43   C     C_R   0.606143 0.011559 0.736494 -0.131431
C44   C     C_R   0.390685 0.992963 0.260732 -0.150257
C45   C     C_R   0.735706 0.607566 0.013588 -0.129697
C46   C     C_R   0.271362 0.405429 0.946941 -0.158581
C47   C     C_R   0.045562 0.727895 0.597604 -0.148877
C48   C     C_R   0.955420 0.270580 0.400214 -0.158623
C49   C     C_R   0.463475 0.012019 0.719525 -0.192304
C50   C     C_R   0.505848 0.059462 0.255806 -0.229299
C51   C     C_R   0.068936 0.701893 0.453636 -0.221618
C52   C     C_R   0.940288 0.294482 0.541841 -0.188998
C53   C     C_R   0.737425 0.488991 0.955780 -0.236827
C54   C     C_R   0.290716 0.552415 0.926209 -0.192226
C55   C     C_R   0.255372 0.054296 0.506168 -0.182317
C56   C     C_R   0.699037 0.080823 0.456880 -0.230136
C57   C     C_R   0.527038 0.282419 0.994227 -0.203030
C58   C     C_R   0.488062 0.745271 0.949933 -0.211417
C59   C     C_R   0.052417 0.495897 0.264901 -0.188428
C60   C     C_R   0.977233 0.484938 0.727132 -0.227866
C61   C     C_R   0.312589 0.964690 0.311254 0.013262
C62   C     C_R   0.699391 0.991974 0.698774 0.068528
C63   C     C_R   0.947891 0.313572 0.312460 0.025448
C64   C     C_R   0.059871 0.681692 0.682683 0.017718
C65   C     C_R   0.316841 0.318693 0.936291 0.023526
C66   C     C_R   0.682815 0.682966 0.045505 -0.001593
C67   C     C_R   0.650593 0.080674 0.404084 -0.009281
C68   C     C_R   0.303222 0.051569 0.559860 0.062155
C69   C     C_R   0.983303 0.429525 0.679996 0.016353
C70   C     C_R   0.058318 0.547541 0.310254 0.042114
C71   C     C_R   0.433854 0.699698 0.948361 0.022176
C72   C     C_R   0.582616 0.333705 0.976132 0.027444
C73   C     C_R   0.553694 0.070217 0.302901 -0.015393
C74   C     C_R   0.407518 0.031601 0.666868 0.056432
C75   C     C_R   0.336266 0.602605 0.934546 0.032913
C76   C     C_R   0.688165 0.436969 0.958242 0.014339
C77   C     C_R   0.958427 0.336301 0.588336 0.037986
C78   C     C_R   0.065671 0.651514 0.404830 0.023450
C79   C     C_R   0.683508 0.097305 0.310961 0.163683
C80   C     C_R   0.262811 0.050175 0.649428 0.102576
C81   C     C_R   0.976434 0.341269 0.722885 0.096477
C82   C     C_R   0.090127 0.623461 0.264088 0.149052
C83   C     C_R   0.345284 0.743122 0.939046 0.129110
C84   C     C_R   0.674924 0.294975 0.966052 0.158365
C85   C     C_R   0.635842 0.091626 0.260981 0.159967
C86   C     C_R   0.316070 0.035925 0.704259 0.097346
C87   C     C_R   0.298398 0.695213 0.927561 0.144574
C88   C     C_R   0.728076 0.347394 0.954592 0.097150
C89   C     C_R   0.953886 0.298701 0.679690 0.149583
C90   C     C_R   0.092116 0.676150 0.310974 0.100537
C91   C     C_R   0.518973 0.058696 0.394416 -0.000424
C92   C     C_R   0.444350 0.043864 0.575754 -0.024360
C93   C     C_R   0.986104 0.414581 0.541777 -0.022155
C94   C     C_R   0.037310 0.573658 0.450570 -0.006051
C95   C     C_R   0.420559 0.558897 0.951132 -0.022841
C96   C     C_R   0.596799 0.475374 0.964299 -0.000364
C97   C     C_R   0.567720 0.062547 0.445156 -0.002229
C98   C     C_R   0.393799 0.047115 0.523715 -0.027710
C99   C     C_R   0.469797 0.607622 0.956388 -0.013926
C100  C     C_R   0.545517 0.425286 0.966599 -0.019641
C101  C     C_R   0.996036 0.462760 0.588317 -0.003246
C102  C     C_R   0.031490 0.523018 0.403283 -0.024696
Cu1   Cu    Cu3+1 0.995180 0.995180 0.424630 0.878612
Cu2   Cu    Cu3+1 0.004820 0.004820 0.575370 0.943132
Cu3   Cu    Cu3+1 0.995180 0.424630 0.995180 0.876125
Cu4   Cu    Cu3+1 0.004820 0.575370 0.004820 0.941842
Cu5   Cu    Cu3+1 0.424630 0.995180 0.995180 0.895763
Cu6   Cu    Cu3+1 0.575370 0.004820 0.004820 0.916659
H1    H     H_    0.438577 0.979692 0.787674 0.212746
H2    H     H_    0.528497 0.078768 0.185023 0.174994
H3    H     H_    0.096915 0.757385 0.418276 0.163383
H4    H     H_    0.906934 0.243033 0.579381 0.184418
H5    H     H_    0.808200 0.466118 0.932285 0.174982
H6    H     H_    0.232923 0.588414 0.900710 0.182975
H7    H     H_    0.184144 0.078281 0.527542 0.218050
H8    H     H_    0.756908 0.104799 0.423962 0.163306
H9    H     H_    0.552423 0.213587 0.026094 0.196783
H10   H     H_    0.473085 0.816083 0.919528 0.174576
H11   H     H_    0.084359 0.508512 0.195019 0.207270
H12   H     H_    0.942142 0.468302 0.795824 0.175375
O1    O     O_R   0.124540 0.978640 0.385460 -0.602365
O2    O     O_R   0.875460 0.021360 0.614540 -0.590132
O3    O     O_R   0.978640 0.385460 0.124540 -0.574183
O4    O     O_R   0.021360 0.614540 0.875460 -0.592273
O5    O     O_R   0.385460 0.124540 0.978640 -0.580029
O6    O     O_R   0.614540 0.875460 0.021360 -0.590780
O7    O     O_R   0.614540 0.021360 0.875460 -0.576810
O8    O     O_R   0.385460 0.978640 0.124540 -0.575097
O9    O     O_R   0.875460 0.614540 0.021360 -0.578067
O10   O     O_R   0.124540 0.385460 0.978640 -0.591803
O11   O     O_R   0.021360 0.875460 0.614540 -0.581401
O12   O     O_R   0.978640 0.124540 0.385460 -0.600613
O13   O     O_R   0.013780 0.867370 0.487190 -0.592745
O14   O     O_R   0.986220 0.132630 0.512810 -0.582057
O15   O     O_R   0.867370 0.487190 0.013780 -0.613987
O16   O     O_R   0.132630 0.512810 0.986220 -0.583235
O17   O     O_R   0.487190 0.013780 0.867370 -0.605037
O18   O     O_R   0.512810 0.986220 0.132630 -0.605398
O19   O     O_R   0.512810 0.132630 0.986220 -0.597376
O20   O     O_R   0.487190 0.867370 0.013780 -0.611749
O21   O     O_R   0.986220 0.512810 0.132630 -0.583994
O22   O     O_R   0.013780 0.487190 0.867370 -0.613872
O23   O     O_R   0.132630 0.986220 0.512810 -0.586720
O24   O     O_R   0.867370 0.013780 0.487190 -0.593536
C103  C     C_3   0.296402 0.889980 0.292418 -0.336525
C104  C     C_3   0.233001 0.921702 0.231964 -0.248275
C105  C     C_3   0.265884 0.869234 0.163285 -0.849900
H13   H     H_    0.297077 0.797282 0.191484 0.244888
H14   H     H_    0.208773 0.875954 0.140768 0.229763
H15   H     H_    0.314649 0.895258 0.103470 0.291029
H16   H     H_    0.167598 0.910286 0.273143 0.212945
H17   H     H_    0.220942 0.994446 0.197928 0.227223
H18   H     H_    0.361879 0.846533 0.264302 0.188083
H19   H     H_    0.269912 0.844074 0.356184 0.147382
C106  C     C_3   0.761586 0.922492 0.756530 -0.356217
C107  C     C_3   0.736135 0.833995 0.804143 -0.361901
C108  C     C_3   0.753202 0.781692 0.739850 -0.797013
H20   H     H_    0.711708 0.820875 0.692055 0.262945
H21   H     H_    0.824683 0.765887 0.702995 0.245713
H22   H     H_    0.735548 0.717908 0.777557 0.238702
H23   H     H_    0.776724 0.791744 0.852418 0.213899
H24   H     H_    0.665286 0.845940 0.841998 0.208055
H25   H     H_    0.831472 0.902173 0.718319 0.217642
H26   H     H_    0.763235 0.950529 0.805445 0.196311
C109  C     C_3   0.887598 0.289919 0.279749 -0.333713
C110  C     C_3   0.936533 0.223320 0.222019 -0.251122
C111  C     C_3   0.898204 0.247570 0.143572 -0.826948
H27   H     H_    0.825108 0.278955 0.160085 0.248579
H28   H     H_    0.929920 0.293666 0.084502 0.277535
H29   H     H_    0.911820 0.186206 0.124738 0.234858
H30   H     H_    0.009173 0.216728 0.197552 0.226340
H31   H     H_    0.928479 0.156205 0.262688 0.213580
H32   H     H_    0.838083 0.261169 0.337793 0.146063
H33   H     H_    0.845642 0.352873 0.244505 0.190125
C112  C     C_3   0.122494 0.705255 0.711758 -0.348572
C113  C     C_3   0.208690 0.715059 0.637896 -0.363717
C114  C     C_3   0.273254 0.732923 0.668879 -0.849566
H34   H     H_    0.241813 0.795899 0.689156 0.258408
H35   H     H_    0.293627 0.676284 0.725097 0.245468
H36   H     H_    0.333835 0.740204 0.613707 0.248654
H37   H     H_    0.242202 0.652568 0.616660 0.217791
H38   H     H_    0.193878 0.771154 0.579245 0.217629
H39   H     H_    0.087668 0.766886 0.734067 0.221088
H40   H     H_    0.145399 0.651133 0.767918 0.200624
C115  C     C_3   0.288670 0.286690 0.879730 -0.348883
C116  C     C_3   0.362885 0.273270 0.795027 -0.354617
C117  C     C_3   0.333971 0.242921 0.738093 -0.826622
H41   H     H_    0.319083 0.178049 0.775785 0.275105
H42   H     H_    0.273881 0.293267 0.718103 0.246362
H43   H     H_    0.388609 0.234035 0.677527 0.248454
H44   H     H_    0.379487 0.337417 0.755714 0.215112
H45   H     H_    0.424400 0.222487 0.810953 0.228092
H46   H     H_    0.266343 0.225757 0.918640 0.223569
H47   H     H_    0.230986 0.337765 0.855959 0.202067
C118  C     C_3   0.702746 0.700749 0.118024 -0.346419
C119  C     C_3   0.709198 0.619208 0.200073 -0.362909
C120  C     C_3   0.731675 0.637832 0.269962 -0.831142
H48   H     H_    0.797248 0.652312 0.242790 0.265072
H49   H     H_    0.679525 0.695622 0.291798 0.250561
H50   H     H_    0.735368 0.578183 0.328341 0.241652
H51   H     H_    0.644379 0.602980 0.229249 0.215380
H52   H     H_    0.761189 0.559313 0.182882 0.216698
H53   H     H_    0.763757 0.723350 0.091306 0.223942
H54   H     H_    0.648295 0.754939 0.143556 0.203831
N1    N     N_3   0.277389 0.027818 0.797187 -0.617836
H55   H     H_    0.249363 0.974525 0.824899 0.243748
H56   H     H_    0.226249 0.086167 0.805013 0.206335
N2    N     N_3   0.673139 0.107355 0.167351 -0.567180
H57   H     H_    0.628040 0.161962 0.136459 0.213633
H58   H     H_    0.681948 0.050846 0.149521 0.216261
N3    N     N_3   0.122719 0.753843 0.261460 -0.626836
H59   H     H_    0.072164 0.809923 0.276938 0.219485
H60   H     H_    0.177881 0.745939 0.281183 0.222439
N4    N     N_3   0.931618 0.215249 0.726039 -0.591521
H61   H     H_    0.936000 0.192449 0.791398 0.246568
H62   H     H_    0.864397 0.227904 0.730675 0.200601
N5    N     N_3   0.822102 0.308170 0.939700 -0.596908
H63   H     H_    0.850476 0.348205 0.879817 0.242658
H64   H     H_    0.842056 0.311040 0.989956 0.227938
N6    N     N_3   0.210210 0.738315 0.913654 -0.596854
H65   H     H_    0.186348 0.804841 0.915112 0.232426
H66   H     H_    0.214550 0.740750 0.849593 0.204135
N7    N     N_3   0.169368 0.057143 0.685358 -0.594363
H67   H     H_    0.138326 0.111373 0.712451 0.224248
H68   H     H_    0.161238 0.998625 0.735389 0.213996
N8    N     N_3   0.766530 0.118406 0.265320 -0.566230
H69   H     H_    0.817209 0.065503 0.289908 0.213850
H70   H     H_    0.762087 0.175920 0.278641 0.210731
N9    N     N_3   0.715525 0.204972 0.958927 -0.599682
H71   H     H_    0.756437 0.170118 0.002303 0.256872
H72   H     H_    0.756466 0.207643 0.894631 0.230221
N10   N     N_3   0.298590 0.832421 0.948100 -0.623146
H73   H     H_    0.244432 0.827475 0.003925 0.215616
H74   H     H_    0.335187 0.860309 0.962750 0.224091
N11   N     N_3   0.118648 0.648385 0.169006 -0.583067
H75   H     H_    0.184913 0.649661 0.149447 0.243610
H76   H     H_    0.079617 0.712909 0.145047 0.240029
N12   N     N_3   0.002521 0.290528 0.804355 -0.619832
H77   H     H_    0.056181 0.235283 0.791653 0.212045
H78   H     H_    0.027987 0.326016 0.823604 0.227685

loop_
_geom_bond_atom_site_label_1
_geom_bond_atom_site_label_2
_ccdc_geom_bond_type
C68   C80   A    
Cu4   O9    S    
C83   C87   A    
C110  H31   S    
C109  C110  S    
C18   C96   A    
C88   N5    S    
C6    C58   A    
C11   C47   A    
N7    H67   S    
C50   H2    S    
C115  H47   S    
C12   C48   A    
Cu1   O24   S    
N6    H66   S    
C103  C104  S    
C7    C49   A    
C75   C95   A    
C111  H28   S    
C3    C33   A    
N1    H55   S    
C78   C90   A    
C113  H38   S    
C66   C118  S    
C77   C89   A    
C108  H20   S    
Cu2   O14   S    
C14   C97   A    
N7    H68   S    
C112  H39   S    
C107  C108  S    
C25   O19   A    
Cu5   O8    S    
Cu2   O2    S    
C26   O20   A    
C12   C33   A    
C90   N3    S    
N4    H62   S    
C58   C71   A    
C118  H53   S    
C83   N10   S    
C52   H4    S    
C109  H32   S    
C29   O23   A    
N12   H78   S    
C5    C35   A    
C1    C31   A    
C30   O24   A    
C81   N12   S    
Cu3   O3    S    
C2    C32   A    
C26   O6    A    
C74   C92   A    
C116  H44   S    
C120  H49   S    
C58   H10   S    
C25   O5    A    
C117  H43   S    
C80   C86   A    
C105  H13   S    
C16   C34   A    
C54   H6    S    
Cu3   O22   S    
C24   O8    A    
C30   O2    A    
C27   C39   S    
N2    H57   S    
C114  H35   S    
Cu2   O11   S    
C29   O1    A    
C10   C46   A    
C9    C36   A    
C22   C46   S    
Cu5   Cu6   S    
C119  H51   S    
C10   C35   A    
C17   C95   A    
C7    C43   A    
C4    C34   A    
Cu1   O12   S    
C76   C88   A    
C79   N8    S    
C21   C45   S    
C1    C37   A    
Cu3   O15   S    
C103  H18   S    
Cu4   O16   S    
C107  H24   S    
C110  H30   S    
C108  H21   S    
C77   C93   A    
C82   N11   S    
C13   C91   A    
N11   H76   S    
C120  H48   S    
C20   O12   A    
C10   C54   A    
C86   N1    S    
N6    H65   S    
C12   C52   A    
C53   H5    S    
C55   C68   A    
C111  H29   S    
C71   C83   A    
N1    H56   S    
C19   O11   A    
C113  H37   S    
C7    C32   A    
C65   C115  S    
C106  C107  S    
C21   O15   A    
C117  H42   S    
C59   H11   S    
C92   C98   A    
C4    C40   A    
C105  H15   S    
C67   C79   A    
C73   C91   A    
C46   C65   A    
Cu1   O13   S    
C50   C73   A    
C25   C41   S    
C47   C64   A    
C27   O3    A    
N4    H61   S    
C119  C120  S    
C48   C63   A    
C41   C65   A    
C118  H54   S    
C106  H25   S    
C109  H33   S    
C71   C99   A    
C74   C86   A    
C104  H16   S    
C22   O16   A    
C29   C37   S    
C45   C66   A    
Cu5   O17   S    
C120  H50   S    
C8    C44   A    
N9    H71   S    
C2    C38   A    
N3    H59   S    
N11   H75   S    
C114  H36   S    
C21   O9    A    
C4    C60   A    
N10   H74   S    
C56   H8    S    
Cu2   O23   S    
C72   C84   A    
C87   N6    S    
C91   C97   A    
C64   C112  S    
C84   N9    S    
C73   C85   A    
C20   C48   S    
C69   C81   A    
C104  H17   S    
C103  H19   S    
C70   C102  A    
C75   C87   A    
C113  C114  S    
N5    H63   S    
C14   C92   A    
C107  H23   S    
N8    H69   S    
C108  H22   S    
Cu5   O5    S    
C14   C32   A    
C110  C111  S    
C44   C61   A    
C53   C76   A    
C28   O22   A    
C18   C99   A    
C57   H9    S    
C93   C101  A    
C52   C77   A    
Cu1   O1    S    
C8    C50   A    
C111  H27   S    
C26   C42   S    
Cu4   O21   S    
C23   O7    A    
C104  C105  S    
C72   C100  A    
N3    H60   S    
C20   O14   A    
C5    C41   A    
N12   H77   S    
C51   H3    S    
Cu5   O20   S    
C105  H14   S    
C8    C31   A    
C16   C94   A    
C23   O17   A    
C11   C34   A    
C15   C102  A    
C84   C88   A    
C115  H46   S    
C62   C106  S    
C40   C64   A    
C15   C93   A    
Cu6   O19   S    
C37   C61   A    
C28   O4    A    
Cu3   O10   S    
C69   C101  A    
C106  H26   S    
C19   O13   A    
C56   C67   A    
C39   C63   A    
Cu3   Cu4   S    
C85   N2    S    
N8    H70   S    
C82   C90   A    
C5    C57   A    
C24   O18   A    
C1    C55   A    
C49   H1    S    
C81   C89   A    
C117  H41   S    
N9    H72   S    
C112  C113  S    
C2    C56   A    
C118  C119  S    
C76   C96   A    
C80   N7    S    
Cu6   O18   S    
C13   C31   A    
C55   H7    S    
C115  C116  S    
C13   C98   A    
C18   C36   A    
C60   C69   A    
C78   C94   A    
C24   C44   S    
C9    C45   A    
C96   C100  A    
C61   C103  S    
N10   H73   S    
C27   O21   A    
C79   C85   A    
C6    C36   A    
C60   H12   S    
C95   C99   A    
Cu6   O7    S    
C116  H45   S    
N5    H64   S    
C70   C82   A    
C17   C100  A    
C68   C98   A    
C51   C78   A    
C11   C51   A    
C67   C97   A    
C59   C70   A    
C3    C39   A    
C54   C75   A    
C16   C101  A    
C63   C109  S    
C9    C53   A    
C94   C102  A    
N2    H58   S    
C114  H34   S    
C6    C42   A    
C19   C47   S    
Cu4   O4    S    
Cu1   Cu2   S    
C42   C66   A    
C57   C72   A    
C28   C40   S    
C49   C74   A    
C112  H40   S    
C17   C35   A    
C30   C38   S    
Cu6   O6    S    
C116  C117  S    
C23   C43   S    
C119  H52   S    
C15   C33   A    
C22   O10   A    
C43   C62   A    
C89   N4    S    
C38   C62   A    
C3    C59   A    
