data_str_m3_o5_o14_f0_pcu.sym.16
_audit_creation_date              2012-12-10T20:47:08-0500
_audit_creation_method            fapswitch 2.2
_symmetry_space_group_name_H-M    P1
_symmetry_Int_Tables_number       1
_space_group_crystal_system       triclinic
_cell_length_a                    10.64393
_cell_length_b                    8.929116
_cell_length_c                    8.115845
_cell_angle_alpha                 90.041389
_cell_angle_beta                  88.416784
_cell_angle_gamma                 90.533703
_cell_volume                      771.009106198

loop_
_atom_site_label
_atom_site_type_symbol
_atom_type_description
_atom_site_fract_x
_atom_site_fract_y
_atom_site_fract_z
_atom_type_partial_charge
C1    C     C_R   0.498996 0.218026 0.499975 0.941527
C2    C     C_R   0.056325 0.494481 0.659580 0.028613
C3    C     C_R   0.125856 0.454184 0.515168 -0.052498
C4    C     C_R   0.875621 0.518440 0.493625 -0.047364
C5    C     C_R   0.064555 0.421615 0.370178 -0.203540
C6    C     C_R   0.938030 0.447612 0.361671 -0.216314
C7    C     C_1   0.496693 0.065181 0.500012 -0.169485
C8    C     C_1   0.495899 0.934738 0.500087 -0.166751
C9    C     C_2   0.182738 0.354246 0.870159 0.935347
C10   C     C_2   0.804456 0.783227 0.716442 0.913690
C11   C     C_R   0.497453 0.781883 0.500082 0.960392
C12   C     C_R   0.259855 0.480216 0.503688 0.882961
C13   C     C_R   0.741074 0.511350 0.497798 0.895497
C14   C     C_R   0.098636 0.478553 0.823203 -0.002680
C15   C     C_R   0.893192 0.662793 0.757602 -0.010428
C16   C     C_R   0.045597 0.569234 0.947429 -0.237733
C17   C     C_R   0.947334 0.665027 0.913133 -0.191860
C18   C     C_R   0.940416 0.561609 0.636004 0.011016
H1    H     H_    0.114857 0.376942 0.264119 0.205851
H2    H     H_    0.889402 0.412490 0.252402 0.179843
H3    H     H_    0.081039 0.567687 0.070693 0.187057
H4    H     H_    0.913545 0.740785 0.008446 0.193594
H5    H     H_    0.255627 0.152340 0.812378 0.349361
H6    H     H_    0.749977 0.931869 0.546245 0.337680
N1    N     N_1   0.500000 0.500000 0.073640 0.011225
N2    N     N_1   0.500000 0.500000 0.926360 0.003684
O1    O     O_R   0.500000 0.285350 0.636850 -0.609899
O2    O     O_R   0.195416 0.228768 0.767906 -0.805967
O3    O     O_2   0.735573 0.837268 0.823525 -0.614347
O4    O     O_R   0.805025 0.840670 0.556212 -0.822550
O5    O     O_R   0.500000 0.714650 0.636850 -0.599062
O6    O     O_R   0.500000 0.285360 0.363100 -0.609028
O7    O     O_R   0.500000 0.714640 0.363100 -0.609411
O8    O     O_R   0.316770 0.500000 0.636900 -0.633703
O9    O     O_R   0.683230 0.500000 0.636900 -0.632927
O10   O     O_R   0.316780 0.500000 0.363150 -0.599908
O11   O     O_R   0.683220 0.500000 0.363150 -0.624361
O12   O     O_2   0.240147 0.360555 0.998337 -0.655133
Zn1   Zn    Zn3+2 0.500000 0.500000 0.682780 1.036866
Zn2   Zn    Zn3+2 0.500000 0.500000 0.317220 1.040747

loop_
_geom_bond_atom_site_label_1
_geom_bond_atom_site_label_2
_ccdc_geom_bond_type
C15   C18   A    
O9    Zn1   S    
C9    C14   S    
C15   C17   A    
C16   H3    S    
C5    H1    S    
C12   O10   A    
C6    H2    S    
C10   O4    S    
C13   O11   A    
C17   H4    S    
O10   Zn2   S    
C4    C18   A    
C2    C3    A    
C11   O5    A    
C7    C8    T    
H5    O2    S    
C10   O3    D    
C8    C11   S    
C9    O12   D    
O5    Zn1   S    
C13   O9    A    
O11   Zn2   S    
H6    O4    S    
C10   C15   S    
O6    Zn2   S    
N1    Zn2   S    
C5    C6    A    
C2    C14   A    
C14   C16   A    
N2    Zn1   S    
O7    Zn2   S    
C2    C18   A    
C12   O8    A    
O8    Zn1   S    
C11   O7    A    
C4    C6    A    
C4    C13   S    
C1    O1    A    
C3    C12   S    
N1    N2    T    
C1    C7    S    
C1    O6    A    
C9    O2    S    
O1    Zn1   S    
C16   C17   A    
C3    C5    A    
