data_str_m12_o4_o9_f0_bcu.sym.91
_audit_creation_date              2012-12-11T17:10:40-0500
_audit_creation_method            fapswitch 2.2
_symmetry_space_group_name_H-M    P1
_symmetry_Int_Tables_number       1
_space_group_crystal_system       triclinic
_cell_length_a                    14.785498
_cell_length_b                    14.881514
_cell_length_c                    14.874341
_cell_angle_alpha                 109.550008
_cell_angle_beta                  109.807322
_cell_angle_gamma                 109.031384
_cell_volume                      2520.09594143

loop_
_atom_site_label
_atom_site_type_symbol
_atom_type_description
_atom_site_fract_x
_atom_site_fract_y
_atom_site_fract_z
_atom_type_partial_charge
C1    C     C_R   0.185340 0.278838 0.253688 -0.167158
C2    C     C_R   0.451172 0.449734 0.776615 0.071820
C3    C     C_R   0.565982 0.197121 0.498599 0.082952
C4    C     C_R   0.198257 0.571382 0.497124 0.060932
C5    C     C_R   0.474486 0.721047 0.406949 -0.147194
C6    C     C_R   0.815588 0.566313 0.593046 -0.135262
C7    C     C_R   0.494442 0.402389 0.195603 -0.162740
C8    C     C_R   0.707056 0.799200 0.803789 -0.157947
C9    C     C_R   0.801480 0.710274 0.805250 -0.121344
C10   C     C_R   0.403920 0.495076 0.194604 -0.142245
C11   C     C_R   0.564160 0.815254 0.591405 -0.129331
C12   C     C_R   0.525417 0.432501 0.746565 -0.146092
C13   C     C_R   0.723368 0.476871 0.408806 -0.125699
C14   C     C_R   0.548420 0.824928 0.498034 0.069726
C15   C     C_R   0.827298 0.555663 0.501650 0.054647
C16   C     C_R   0.433417 0.432175 0.131047 0.081827
C17   C     C_R   0.802011 0.803354 0.868557 0.073640
C18   C     C_R   0.107830 0.606343 0.189771 -0.121789
C19   C     C_R   0.108688 0.628199 0.289198 -0.153491
C20   C     C_R   0.022937 0.553369 0.291417 0.078888
C21   C     C_R   0.935292 0.457782 0.192035 -0.095534
C22   C     C_R   0.934859 0.436388 0.092888 -0.066757
C23   C     C_R   0.505100 0.200931 0.408002 -0.159068
C24   C     C_R   0.021153 0.510456 0.091793 -0.131550
C25   C     C_R   0.929403 0.570641 0.400752 -0.243055
C26   C     C_R   0.931211 0.606580 0.501496 0.056670
C27   C     C_R   0.034832 0.676107 0.600016 0.031139
C28   C     C_R   0.127002 0.672488 0.596852 -0.237383
C29   C     C_R   0.118133 0.610901 0.496047 0.058340
C30   C     C_R   0.024152 0.577015 0.397096 0.039528
C31   C     C_R   0.998760 0.822453 0.696530 -0.138501
C32   C     C_R   0.016894 0.903964 0.792583 -0.101759
C33   C     C_R   0.086936 0.922804 0.895632 -0.087578
C34   C     C_R   0.291357 0.598529 0.589629 -0.136208
C35   C     C_R   0.137197 0.858673 0.902869 -0.122815
C36   C     C_R   0.119224 0.776834 0.806978 -0.177431
C37   C     C_R   0.050229 0.758330 0.702669 0.111430
C38   C     C_R   0.450382 0.345135 0.876486 0.165176
C39   C     C_R   0.406036 0.400721 0.832518 0.033912
C40   C     C_R   0.332361 0.425410 0.861528 -0.201602
C41   C     C_R   0.328262 0.421784 0.952997 -0.207317
C42   C     C_R   0.397242 0.392628 0.014275 0.032187
C43   C     C_R   0.445534 0.340735 0.965944 0.164325
C44   C     C_3   0.557978 0.351864 0.015397 -0.523699
C45   C     C_R   0.595785 0.290217 0.590849 -0.142498
C46   C     C_3   0.563824 0.357349 0.918162 -0.521565
C47   C     C_R   0.548820 0.925680 0.394470 0.168409
C48   C     C_R   0.593461 0.925726 0.494023 0.032453
C49   C     C_R   0.667121 0.027844 0.591989 -0.204129
C50   C     C_R   0.670968 0.123328 0.592602 -0.204570
C51   C     C_R   0.601884 0.116131 0.494985 0.030626
C52   C     C_R   0.553461 0.019899 0.395023 0.160875
C53   C     C_3   0.440672 0.957628 0.294927 -0.528368
C54   C     C_3   0.435039 0.854726 0.294623 -0.529565
C55   C     C_R   0.966907 0.073754 0.124804 -0.032832
C56   C     C_R   0.199260 0.504351 0.407272 -0.146000
C57   C     C_R   0.067235 0.074281 0.169606 0.011962
C58   C     C_R   0.063324 0.972252 0.141306 -0.176316
C59   C     C_R   0.968631 0.876683 0.048663 -0.201386
C60   C     C_R   0.878441 0.883931 0.985688 0.073221
C61   C     C_R   0.873766 0.979685 0.033475 0.076286
C62   C     C_3   0.834435 0.041409 0.983498 -0.646959
C63   C     C_3   0.936483 0.145017 0.082139 0.515560
C64   C     C_R   0.435339 0.527316 0.751032 -0.125531
C65   C     C_R   0.275995 0.184805 0.249322 -0.118697
C66   C     C_R   0.172454 0.175059 0.224305 0.049813
H1    H     H_    0.123999 0.302973 0.250733 0.136918
H2    H     H_    0.878436 0.616407 0.678901 0.117265
H3    H     H_    0.513554 0.337801 0.167631 0.102247
H4    H     H_    0.669787 0.845808 0.831359 0.110500
H5    H     H_    0.854439 0.678790 0.834595 0.088897
H6    H     H_    0.342423 0.518161 0.165586 0.087686
H7    H     H_    0.617186 0.879624 0.676738 0.095510
H8    H     H_    0.700935 0.446293 0.323326 0.093355
H9    H     H_    0.020716 0.493689 0.014960 0.102301
H10   H     H_    0.174270 0.663756 0.188559 0.108405
H11   H     H_    0.176384 0.702926 0.364473 0.119182
H12   H     H_    0.552721 0.374277 0.749262 0.111176
H13   H     H_    0.868023 0.399190 0.191401 0.128485
H14   H     H_    0.867629 0.362245 0.016892 0.115725
H15   H     H_    0.853800 0.534893 0.324474 0.117992
H16   H     H_    0.204721 0.716452 0.673193 0.119161
H17   H     H_    0.945712 0.810324 0.617397 0.115652
H18   H     H_    0.977352 0.953189 0.787168 0.108073
H19   H     H_    0.102289 0.987264 0.969819 0.118479
H20   H     H_    0.190635 0.872829 0.982903 0.106567
H21   H     H_    0.158802 0.727905 0.814246 0.106250
H22   H     H_    0.289387 0.460860 0.823928 0.126218
H23   H     H_    0.485850 0.153746 0.324401 0.100482
H24   H     H_    0.282359 0.454707 0.982570 0.124399
H25   H     H_    0.620213 0.429988 0.094631 0.199777
H26   H     H_    0.554587 0.276447 0.016297 0.191514
H27   H     H_    0.629381 0.438861 0.943055 0.201965
H28   H     H_    0.564509 0.285403 0.863579 0.192150
H29   H     H_    0.710319 0.032893 0.670083 0.126172
H30   H     H_    0.716878 0.198422 0.671183 0.124145
H31   H     H_    0.378763 0.975210 0.311830 0.200078
H32   H     H_    0.443451 0.961677 0.222547 0.187306
H33   H     H_    0.370285 0.814974 0.312095 0.196359
H34   H     H_    0.325174 0.659993 0.673835 0.085327
H35   H     H_    0.433655 0.799171 0.221610 0.190684
H36   H     H_    0.136885 0.967524 0.179765 0.121408
H37   H     H_    0.972700 0.801886 0.019355 0.126117
H38   H     H_    0.835286 0.025263 0.905238 0.165953
H39   H     H_    0.755880 0.034135 0.979975 0.212089
H40   H     H_    0.994049 0.185272 0.057734 0.037829
H41   H     H_    0.657185 0.322131 0.675023 0.084244
H42   H     H_    0.146730 0.474748 0.321556 0.133720
H43   H     H_    0.381831 0.559562 0.762027 0.092990
H44   H     H_    0.297224 0.120547 0.238163 0.089214
H45   H     H_    0.447297 0.696678 0.321585 0.111413
N1    N     N_R   0.291070 0.347930 0.293870 -0.037561
N2    N     N_R   0.708930 0.502750 0.556810 -0.041972
N3    N     N_R   0.502760 0.445970 0.293860 -0.037709
N4    N     N_R   0.652110 0.708890 0.706130 -0.039683
N5    N     N_R   0.708930 0.652070 0.706130 -0.040448
N6    N     N_R   0.445950 0.502780 0.293850 -0.037609
N7    N     N_R   0.502760 0.708900 0.556790 -0.039694
N8    N     N_R   0.652110 0.445950 0.443190 -0.040211
N9    N     N_R   0.554050 0.497220 0.706150 -0.040544
N10   N     N_R   0.497240 0.291100 0.443210 -0.036729
N11   N     N_R   0.347890 0.554050 0.556810 -0.038395
N12   N     N_R   0.554050 0.347900 0.556830 -0.037768
N13   N     N_R   0.291070 0.497250 0.443190 -0.041444
N14   N     N_R   0.497240 0.554030 0.706140 -0.039962
N15   N     N_R   0.347890 0.291110 0.293870 -0.037994
N16   N     N_R   0.445950 0.652100 0.443170 -0.039088
Ni1   Ni    Ni4+2 0.369690 0.500010 0.369700 0.215355
Ni2   Ni    Ni4+2 0.630310 0.499990 0.630300 0.207698
Ni3   Ni    Ni4+2 0.500000 0.369720 0.369720 0.206714
Ni4   Ni    Ni4+2 0.500000 0.630280 0.630280 0.207660
O1    O     O_3   0.910035 0.219434 0.142474 -0.617912
C67   C     C_3   0.893534 0.202356 0.224844 -0.239342
H46   H     H_    0.971754 0.220535 0.291666 0.143924
H47   H     H_    0.826358 0.117673 0.189282 0.146223
H48   H     H_    0.867927 0.260100 0.262592 0.157731

loop_
_geom_bond_atom_site_label_1
_geom_bond_atom_site_label_2
_ccdc_geom_bond_type
C41   C42   A    
C54   H35   S    
C3    C23   A    
C35   C36   A    
N10   Ni3   S    
C2    C12   A    
C64   H43   S    
C23   N10   A    
C62   H39   S    
C20   C30   S    
C53   C54   S    
C45   N12   A    
C28   C29   A    
C26   C27   A    
C62   C63   S    
N2    Ni2   S    
C18   C24   A    
C56   N13   A    
C7    N3    A    
C36   C37   A    
C1    N1    A    
C38   C39   A    
N4    Ni4   S    
C35   H20   S    
N15   Ni3   S    
N4    N5    A    
N8    Ni3   S    
C31   H17   S    
C18   C19   A    
C19   H11   S    
C33   H19   S    
C56   H42   S    
N7    Ni4   S    
C8    N4    A    
C1    H1    S    
C6    C15   A    
C12   N9    A    
C2    C39   S    
N5    Ni2   S    
C47   C48   A    
N1    Ni1   S    
C2    C64   A    
O1    C67   S    
C12   H12   S    
C67   H48   S    
C34   H34   S    
C23   H23   S    
C58   H36   S    
C57   C66   S    
N1    N15   A    
C4    C29   S    
C44   H26   S    
N13   Ni1   S    
C6    H2    S    
C41   H24   S    
C59   C60   A    
C34   N11   A    
N2    N8    A    
C21   C22   A    
C4    C56   A    
C25   H15   S    
N3    Ni3   S    
C21   H13   S    
C13   N8    A    
C44   C46   S    
C1    C66   A    
C62   H38   S    
C36   H21   S    
C32   H18   S    
C4    C34   A    
N10   N12   A    
C28   H16   S    
N9    Ni2   S    
C11   H7    S    
C11   C14   A    
C3    C51   S    
N9    N14   A    
C15   C26   S    
C14   C48   S    
C5    H45   S    
C53   H31   S    
C58   C59   A    
C3    C45   A    
C51   C52   A    
C55   C63   S    
C60   C61   A    
C43   C44   S    
C6    N2    A    
C29   C30   A    
N14   Ni4   S    
C31   C32   A    
C46   H28   S    
C5    N16   A    
C50   C51   A    
C63   O1    S    
C49   H29   S    
C63   H40   S    
C5    C14   A    
C44   H25   S    
C47   C54   S    
C9    C17   A    
C40   C41   A    
C65   C66   A    
C13   C15   A    
C67   H46   S    
C49   C50   A    
C22   C24   A    
C54   H33   S    
C42   C43   A    
N11   N13   A    
N16   Ni1   S    
C16   C42   S    
N11   Ni4   S    
C39   C40   A    
C52   C53   S    
C25   C30   A    
C7    C16   A    
C18   H10   S    
C9    N5    A    
C9    H5    S    
C7    H3    S    
C24   H9    S    
C47   C52   A    
C53   H32   S    
C8    H4    S    
C8    C17   A    
C59   H37   S    
C32   C33   A    
C40   H22   S    
C19   C20   A    
C55   C57   A    
C25   C26   A    
C22   H14   S    
C38   C43   A    
C10   N6    A    
C10   C16   A    
C65   N15   A    
C50   H30   S    
C57   C58   A    
C46   H27   S    
C27   C37   S    
C48   C49   A    
C55   C61   A    
C33   C35   A    
C61   C62   S    
N6    Ni1   S    
C65   H44   S    
C38   C46   S    
N3    N6    A    
C17   C60   S    
C31   C37   A    
C20   C21   A    
C64   N14   A    
N7    N16   A    
C27   C28   A    
C67   H47   S    
C11   N7    A    
N12   Ni2   S    
C45   H41   S    
C13   H8    S    
C10   H6    S    
