data_str_m4_o4_o15_f0_acs.sym.5
_audit_creation_date              2012-12-11T15:45:01-0500
_audit_creation_method            fapswitch 2.2
_symmetry_space_group_name_H-M    P1
_symmetry_Int_Tables_number       1
_space_group_crystal_system       triclinic
_cell_length_a                    19.044121
_cell_length_b                    10.961723
_cell_length_c                    18.803687
_cell_angle_alpha                 90.291969
_cell_angle_beta                  90.021353
_cell_angle_gamma                 89.968414
_cell_volume                      3925.33778244

loop_
_atom_site_label
_atom_site_type_symbol
_atom_type_description
_atom_site_fract_x
_atom_site_fract_y
_atom_site_fract_z
_atom_type_partial_charge
C1    C     C_R   0.760608 0.535818 0.647140 0.526329
C2    C     C_R   0.185080 0.067978 0.544812 -0.133680
C3    C     C_R   0.476568 0.949675 0.969741 0.016602
C4    C     C_R   0.975284 0.230998 0.969637 -0.165236
C5    C     C_R   0.979052 0.231800 0.044196 -0.175984
C6    C     C_R   0.475284 0.730998 0.969637 -0.165237
C7    C     C_R   0.479053 0.731799 0.044196 -0.175986
C8    C     C_3   0.023648 0.566400 0.040452 -0.226812
C9    C     C_3   0.018411 0.563029 0.960406 -0.257770
C10   C     C_3   0.523647 0.066398 0.040452 -0.226810
C11   C     C_3   0.518410 0.063028 0.960407 -0.257773
C12   C     C_R   0.762151 0.527426 0.854274 0.545676
C13   C     C_R   0.226077 0.459311 0.478667 -0.157469
C14   C     C_R   0.228080 0.489756 0.140035 0.554671
C15   C     C_R   0.262151 0.027428 0.854273 0.545684
C16   C     C_R   0.728080 0.989756 0.140035 0.554670
C17   C     C_R   0.771964 0.125589 0.852703 0.565026
C18   C     C_R   0.227794 0.123733 0.147692 0.570443
C19   C     C_R   0.271964 0.625589 0.852704 0.565026
C20   C     C_R   0.727794 0.623733 0.147692 0.570468
C21   C     C_R   0.966270 0.347079 0.855964 0.543465
C22   C     C_R   0.028294 0.347042 0.147404 0.537118
C23   C     C_R   0.466270 0.847079 0.855964 0.543462
C24   C     C_R   0.684980 0.568849 0.544980 -0.133981
C25   C     C_R   0.528294 0.847042 0.147403 0.537115
C26   C     C_R   0.738448 0.054362 0.430104 0.024112
C27   C     C_R   0.249836 0.089681 0.577898 -0.014148
C28   C     C_R   0.238436 0.554561 0.430078 0.024206
C29   C     C_R   0.749832 0.590005 0.577989 -0.014289
C30   C     C_R   0.745283 0.172641 0.454767 0.045863
C31   C     C_R   0.308875 0.111236 0.535232 0.018508
C32   C     C_R   0.245564 0.672815 0.454722 0.045884
C33   C     C_R   0.808878 0.611166 0.535248 0.018563
C34   C     C_R   0.754777 0.192313 0.526330 0.101465
C35   C     C_3   0.798007 0.266594 0.434691 -0.288785
C36   C     C_R   0.302806 0.117797 0.462141 -0.005529
C37   C     C_R   0.255099 0.692445 0.526296 0.101306
C38   C     C_R   0.802756 0.617717 0.462166 -0.005569
C39   C     C_3   0.360705 0.213374 0.537451 -0.265973
C40   C     C_3   0.298577 0.766262 0.434650 -0.288872
C41   C     C_3   0.860981 0.712920 0.537387 -0.265694
C42   C     C_3   0.809860 0.285858 0.513659 -0.259528
C43   C     C_3   0.354096 0.220092 0.457087 -0.261914
C44   C     C_3   0.310548 0.785347 0.513614 -0.259783
C45   C     C_R   0.237304 0.528600 0.355636 0.548003
C46   C     C_3   0.854307 0.719625 0.457025 -0.261826
C47   C     C_R   0.754751 0.096000 0.574626 0.046948
C48   C     C_R   0.238085 0.098620 0.429084 -0.005950
C49   C     C_R   0.254791 0.596131 0.574594 0.047129
C50   C     C_R   0.737966 0.598979 0.429174 -0.005938
C51   C     C_R   0.010290 0.346551 0.431853 -0.012620
C52   C     C_R   0.014030 0.328990 0.581600 -0.026277
C53   C     C_R   0.510295 0.846481 0.431860 -0.012567
C54   C     C_R   0.514069 0.828995 0.581616 -0.026244
C55   C     C_R   0.973402 0.129860 0.425866 -0.111626
C56   C     C_R   0.260614 0.035755 0.647112 0.526412
C57   C     C_R   0.998085 0.105614 0.570819 -0.096722
C58   C     C_R   0.473614 0.629662 0.425916 -0.111908
C59   C     C_R   0.498206 0.605594 0.570895 -0.097062
C60   C     C_R   0.963868 0.017389 0.458580 -0.083129
C61   C     C_R   0.978030 0.004534 0.530570 -0.067467
C62   C     C_R   0.464090 0.517221 0.458666 -0.082983
C63   C     C_R   0.478201 0.504457 0.530672 -0.067265
C64   C     C_R   0.003598 0.222507 0.539740 -0.006040
C65   C     C_R   0.996550 0.233030 0.465055 -0.008009
C66   C     C_R   0.503714 0.722461 0.539778 -0.006380
C67   C     C_R   0.737293 0.028521 0.355657 0.548091
C68   C     C_R   0.496677 0.732919 0.465083 -0.008197
C69   C     C_R   0.037137 0.436129 0.548969 -0.061819
C70   C     C_R   0.025553 0.451876 0.475650 -0.050519
C71   C     C_R   0.537119 0.936144 0.548955 -0.061667
C72   C     C_R   0.525474 0.951845 0.475644 -0.050411
C73   C     C_R   0.772514 0.123763 0.646962 0.536172
C74   C     C_R   0.225070 0.128954 0.355572 0.544341
C75   C     C_R   0.272514 0.623769 0.646958 0.536176
C76   C     C_R   0.725033 0.629050 0.355608 0.544343
C77   C     C_R   0.066475 0.531906 0.590041 -0.118879
C78   C     C_R   0.735664 0.979406 0.551546 -0.185050
C79   C     C_R   0.029557 0.573824 0.449949 -0.118529
C80   C     C_R   0.566443 0.031979 0.589990 -0.118787
C81   C     C_R   0.529350 0.073787 0.449928 -0.118410
C82   C     C_R   0.076420 0.647020 0.561142 0.398077
C83   C     C_R   0.056400 0.668622 0.491501 0.376004
C84   C     C_R   0.576323 0.147086 0.561055 0.397982
C85   C     C_R   0.556216 0.168632 0.491432 0.375926
C86   C     C_R   0.736033 0.025110 0.066217 -0.040473
C87   C     C_R   0.256827 0.056327 0.929520 -0.041935
C88   C     C_R   0.236033 0.525111 0.066218 -0.040470
C89   C     C_R   0.179652 0.068952 0.471518 -0.119727
C90   C     C_R   0.756829 0.556321 0.929521 -0.041931
C91   C     C_R   0.774039 0.948865 0.021097 -0.016087
C92   C     C_R   0.197269 0.015885 0.964514 0.104605
C93   C     C_R   0.274038 0.448866 0.021097 -0.016090
C94   C     C_R   0.697272 0.515875 0.964516 0.104602
C95   C     C_R   0.779277 0.972790 0.949207 -0.041628
C96   C     C_R   0.191603 0.024508 0.036831 -0.004091
C97   C     C_R   0.279276 0.472791 0.949207 -0.041625
C98   C     C_R   0.691606 0.524496 0.036834 -0.004098
C99   C     C_R   0.703900 0.148573 0.964500 0.325139
C100  C     C_R   0.235346 0.479722 0.551527 -0.185090
C101  C     C_R   0.310934 0.093216 0.045700 0.314551
C102  C     C_R   0.203901 0.648577 0.964501 0.325139
C103  C     C_R   0.810935 0.593214 0.045702 0.314553
C104  C     C_R   0.699759 0.124421 0.037174 -0.133736
C105  C     C_R   0.316206 0.086943 0.971018 -0.143224
C106  C     C_R   0.199760 0.624424 0.037175 -0.133736
C107  C     C_R   0.816207 0.586940 0.971019 -0.143222
C108  C     C_3   0.849666 0.914261 0.026242 -0.253356
C109  C     C_3   0.122660 0.049236 0.951667 -0.256712
C110  C     C_3   0.349664 0.414259 0.026242 -0.253357
C111  C     C_R   0.679473 0.569909 0.471679 -0.119836
C112  C     C_3   0.622661 0.549212 0.951671 -0.256708
C113  C     C_3   0.854242 0.931973 0.946950 -0.268233
C114  C     C_3   0.116150 0.060720 0.031478 -0.266428
C115  C     C_3   0.354242 0.431972 0.946950 -0.268232
C116  C     C_3   0.616151 0.560694 0.031482 -0.266433
C117  C     C_R   0.747913 0.077157 0.920397 0.024095
C118  C     C_R   0.245747 0.074274 0.078082 0.030938
C119  C     C_R   0.247913 0.577160 0.920398 0.024094
C120  C     C_R   0.745749 0.574268 0.078084 0.030936
C121  C     C_R   0.974327 0.344068 0.648976 0.528102
C122  C     C_R   0.726403 0.958956 0.478684 -0.157486
C123  C     C_R   0.031284 0.347946 0.355490 0.532839
C124  C     C_R   0.474337 0.844069 0.648980 0.528089
C125  C     C_R   0.531279 0.847932 0.355490 0.532791
C126  C     C_R   0.990722 0.342541 0.080093 0.023346
C127  C     C_R   0.979826 0.341119 0.931642 0.004616
C128  C     C_R   0.490721 0.842541 0.080093 0.023342
C129  C     C_R   0.479825 0.841119 0.931643 0.004617
C130  C     C_R   0.981058 0.451305 0.042345 0.106144
C131  C     C_R   0.976570 0.449675 0.969741 0.016597
C132  C     C_R   0.481056 0.951305 0.042345 0.106149
Cr1   Cr    Cr6+3 0.885860 0.491680 0.749630 1.021007
Cr2   Cr    Cr6+3 0.112430 0.179310 0.249850 1.017630
Cr3   Cr    Cr6+3 0.387570 0.679310 0.750150 1.001895
Cr4   Cr    Cr6+3 0.612430 0.679310 0.249850 1.017616
Cr5   Cr    Cr6+3 0.114140 0.491680 0.250370 1.037614
Cr6   Cr    Cr6+3 0.385860 0.991680 0.749630 1.021009
Cr7   Cr    Cr6+3 0.614140 0.991680 0.250370 1.037703
Cr8   Cr    Cr6+3 0.730490 0.332970 0.748720 1.116138
Cr9   Cr    Cr6+3 0.269510 0.332970 0.251280 1.043213
Cr10  Cr    Cr6+3 0.230490 0.832970 0.748720 1.116245
Cr11  Cr    Cr6+3 0.769510 0.832970 0.251280 1.043201
Cr12  Cr    Cr6+3 0.887570 0.179310 0.750150 1.001935
F1    F     F_    0.102119 0.739164 0.601863 -0.614170
F2    F     F_    0.062522 0.782089 0.463841 -0.643106
F3    F     F_    0.602040 0.239278 0.601729 -0.614176
F4    F     F_    0.562306 0.282077 0.463730 -0.643053
F5    F     F_    0.669808 0.248048 0.939267 -0.642441
F6    F     F_    0.367569 0.122472 0.085886 -0.671010
F7    F     F_    0.169811 0.748054 0.939269 -0.642432
F8    F     F_    0.867569 0.622475 0.085887 -0.671010
H1    H     H_    0.730328 0.904972 0.588805 0.110508
H2    H     H_    0.091821 0.972081 0.929188 0.189479
H3    H     H_    0.357773 0.319340 0.042326 0.214145
H4    H     H_    0.591827 0.472054 0.929191 0.189493
H5    H     H_    0.881148 0.981917 0.056906 0.150118
H6    H     H_    0.116895 0.137504 0.923323 0.115691
H7    H     H_    0.381147 0.481913 0.056906 0.150119
H8    H     H_    0.616891 0.637479 0.923327 0.115687
H9    H     H_    0.891795 0.004208 0.932350 0.160707
H10   H     H_    0.108604 0.156396 0.049375 0.151911
H11   H     H_    0.391795 0.504207 0.932350 0.160705
H12   H     H_    0.128246 0.052863 0.448695 0.196185
H13   H     H_    0.608600 0.656367 0.049379 0.151916
H14   H     H_    0.860640 0.845066 0.916900 0.138283
H15   H     H_    0.080414 0.991989 0.055331 0.154503
H16   H     H_    0.360639 0.345066 0.916900 0.138282
H17   H     H_    0.580420 0.491956 0.055335 0.154508
H18   H     H_    0.972915 0.144942 0.941762 0.127371
H19   H     H_    0.981230 0.146028 0.072369 0.125292
H20   H     H_    0.472916 0.644942 0.941762 0.127370
H21   H     H_    0.481230 0.646028 0.072369 0.125294
H22   H     H_    0.996465 0.645847 0.064870 0.204183
H23   H     H_    0.229747 0.405379 0.588795 0.110336
H24   H     H_    0.069392 0.545651 0.933432 0.159763
H25   H     H_    0.496465 0.145846 0.064871 0.204184
H26   H     H_    0.569390 0.045648 0.933432 0.159761
H27   H     H_    0.713353 0.868135 0.459993 0.127980
H28   H     H_    0.139245 0.043368 0.575534 0.174934
H29   H     H_    0.212815 0.368597 0.459985 0.127886
H30   H     H_    0.639143 0.544523 0.575773 0.174375
H31   H     H_    0.274020 0.845931 0.408178 0.161796
H32   H     H_    0.913489 0.681172 0.555263 0.157579
H33   H     H_    0.773198 0.345994 0.408177 0.162063
H34   H     H_    0.628008 0.554230 0.448892 0.195792
H35   H     H_    0.413271 0.182045 0.555376 0.157503
H36   H     H_    0.843836 0.227698 0.406208 0.130457
H37   H     H_    0.340575 0.295475 0.565598 0.136899
H38   H     H_    0.344235 0.726923 0.406106 0.130504
H39   H     H_    0.841093 0.795227 0.565533 0.136777
H40   H     H_    0.862222 0.256281 0.532507 0.148386
H41   H     H_    0.330712 0.306525 0.438228 0.165509
H42   H     H_    0.362760 0.754972 0.532432 0.148773
H43   H     H_    0.831129 0.806241 0.438164 0.165283
H44   H     H_    0.792929 0.375713 0.532874 0.163556
H45   H     H_    0.669405 0.185211 0.070799 0.155941
H46   H     H_    0.402413 0.192800 0.428510 0.142844
H47   H     H_    0.294107 0.875500 0.532872 0.163056
H48   H     H_    0.902517 0.691905 0.428388 0.142751
H49   H     H_    0.946337 0.939645 0.427667 0.150497
H50   H     H_    0.972982 0.916202 0.555497 0.165973
H51   H     H_    0.446589 0.439435 0.427770 0.150876
H52   H     H_    0.473150 0.416151 0.555631 0.166177
H53   H     H_    0.959719 0.135806 0.370212 0.132886
H54   H     H_    0.011049 0.090591 0.626077 0.140348
H55   H     H_    0.459941 0.635517 0.370256 0.132988
H56   H     H_    0.365696 0.107129 0.945836 0.144720
H57   H     H_    0.511137 0.590635 0.626168 0.140373
H58   H     H_    0.008756 0.601349 0.399310 0.171841
H59   H     H_    0.080624 0.517830 0.645221 0.146012
H60   H     H_    0.508453 0.101222 0.399308 0.171709
H61   H     H_    0.580632 0.017949 0.645163 0.145997
H62   H     H_    0.077382 0.550619 0.059702 0.141085
H63   H     H_    0.987209 0.639607 0.938299 0.154423
H64   H     H_    0.577382 0.050616 0.059701 0.141082
H65   H     H_    0.487209 0.139606 0.938300 0.154420
H66   H     H_    0.169407 0.685214 0.070801 0.155941
H67   H     H_    0.865698 0.607129 0.945837 0.144719
H68   H     H_    0.857775 0.819341 0.042327 0.214146
O1    O     O_R   0.957020 0.451640 0.669920 -0.509577
O2    O     O_R   0.168040 0.093290 0.169870 -0.530779
O3    O     O_R   0.331960 0.593290 0.830130 -0.542081
O4    O     O_R   0.668040 0.593290 0.169870 -0.530767
O5    O     O_R   0.945600 0.250580 0.824860 -0.510814
O6    O     O_R   0.054400 0.250580 0.175140 -0.516377
O7    O     O_R   0.445600 0.750580 0.824860 -0.510816
O8    O     O_R   0.554400 0.750580 0.175140 -0.516375
O9    O     O_3   0.834640 0.334650 0.749500 -0.263962
O10   O     O_3   0.165360 0.334650 0.250500 -0.280570
O11   O     O_3   0.334640 0.834650 0.749500 -0.263973
O12   O     O_R   0.042980 0.451640 0.330080 -0.523448
O13   O     O_3   0.665360 0.834650 0.250500 -0.280622
O14   O     O_R   0.821450 0.543440 0.674610 -0.500556
O15   O     O_R   0.178550 0.543440 0.325390 -0.478950
O16   O     O_R   0.321450 0.043440 0.674610 -0.500562
O17   O     O_R   0.678550 0.043440 0.325390 -0.478912
O18   O     O_R   0.715320 0.458650 0.668100 -0.486009
O19   O     O_R   0.284680 0.458650 0.331900 -0.534990
O20   O     O_R   0.215320 0.958650 0.668100 -0.486087
O21   O     O_R   0.784680 0.958650 0.331900 -0.534989
O22   O     O_R   0.737170 0.209590 0.674530 -0.447415
O23   O     O_R   0.457020 0.951640 0.669920 -0.509547
O24   O     O_R   0.262830 0.209590 0.325470 -0.504113
O25   O     O_R   0.237170 0.709590 0.674530 -0.447206
O26   O     O_R   0.762830 0.709590 0.325470 -0.504154
O27   O     O_R   0.832710 0.092740 0.669580 -0.532009
O28   O     O_R   0.167290 0.092740 0.330420 -0.510270
O29   O     O_R   0.332710 0.592740 0.669580 -0.532101
O30   O     O_R   0.667290 0.592740 0.330420 -0.510137
O31   O     O_R   0.946290 0.250060 0.676040 -0.511692
O32   O     O_R   0.053710 0.250060 0.323960 -0.502844
O33   O     O_R   0.446290 0.750060 0.676040 -0.511718
O34   O     O_R   0.542980 0.951640 0.330080 -0.523323
O35   O     O_R   0.553710 0.750060 0.323960 -0.502976
O36   O     O_R   0.956270 0.452200 0.830470 -0.517841
O37   O     O_R   0.043730 0.452200 0.169530 -0.514732
O38   O     O_R   0.456270 0.952200 0.830470 -0.517848
O39   O     O_R   0.543730 0.952200 0.169530 -0.514730
O40   O     O_R   0.820760 0.543950 0.823440 -0.519702
O41   O     O_R   0.179240 0.543950 0.176560 -0.512436
O42   O     O_R   0.320760 0.043950 0.823440 -0.519696
O43   O     O_R   0.679240 0.043950 0.176560 -0.512423
O44   O     O_R   0.714570 0.459210 0.828640 -0.475770
O45   O     O_R   0.736470 0.210100 0.823360 -0.434897
O46   O     O_R   0.285430 0.459210 0.171360 -0.498944
O47   O     O_R   0.214570 0.959210 0.828640 -0.475752
O48   O     O_R   0.785430 0.959210 0.171360 -0.498942
O49   O     O_R   0.263530 0.210100 0.176640 -0.459282
O50   O     O_R   0.236470 0.710100 0.823360 -0.434891
O51   O     O_R   0.763530 0.710100 0.176640 -0.459269
O52   O     O_R   0.831960 0.093290 0.830130 -0.542086

loop_
_geom_bond_atom_site_label_1
_geom_bond_atom_site_label_2
_ccdc_geom_bond_type
C58   C62   A    
C79   H58   S    
C66   C68   A    
Cr6   O38   S    
Cr7   O43   S    
Cr7   O17   S    
C51   C123  S    
C104  H45   S    
Cr4   O35   S    
C69   C77   A    
C103  C120  A    
C34   C42   S    
C85   F4    S    
Cr2   O32   S    
C80   C84   A    
C76   O30   A    
Cr10  O50   S    
C67   O21   A    
C110  H7    S    
C114  H15   S    
C102  C119  A    
C6    H20   S    
C9    H63   S    
C98   C120  A    
Cr10  O20   S    
C99   F5    S    
C91   C95   A    
C4    C5    A    
C4    H18   S    
C30   C35   S    
C57   C64   A    
Cr11  O51   S    
C101  C118  A    
Cr2   O6    S    
C96   C118  A    
Cr6   O11   S    
Cr12  O52   S    
C25   C128  S    
C95   C113  S    
C90   C107  A    
C15   O47   A    
C86   C91   A    
C17   O52   A    
C59   C66   A    
C12   O44   A    
Cr12  O5    S    
C39   H37   S    
C8    H22   S    
C92   C109  S    
C114  H10   S    
Cr5   O15   S    
C94   C98   A    
Cr10  O11   S    
C29   C33   A    
C101  F6    S    
C92   C96   A    
C88   C106  A    
C23   C129  S    
C9    H24   S    
C45   O15   A    
Cr11  O48   S    
C51   C65   A    
C125  O35   A    
C53   C68   A    
C24   C29   A    
C50   C111  A    
C17   O45   A    
C52   C69   A    
C59   H57   S    
C16   O43   A    
Cr6   O16   S    
Cr8   O45   S    
Cr1   O40   S    
C73   O22   A    
Cr6   O42   S    
C23   O38   A    
C58   H55   S    
C35   H36   S    
Cr2   O2    S    
C20   C120  S    
Cr7   O39   S    
C5    C126  A    
Cr7   O13   S    
Cr1   O1    S    
C41   C46   S    
C49   C75   S    
C41   H32   S    
C80   H61   S    
C2    C27   A    
C110  H3    S    
C51   C70   A    
Cr9   O49   S    
C7    C128  A    
C21   C127  S    
C6    C129  A    
C11   H65   S    
C89   H12   S    
C72   C81   A    
C75   O25   A    
C17   C117  S    
C102  F7    S    
C40   H31   S    
C74   O24   A    
Cr4   O30   S    
C32   C40   S    
C99   C104  A    
Cr4   O8    S    
C19   C119  S    
Cr8   O9    S    
Cr9   O19   S    
Cr3   O11   S    
C87   C92   A    
C16   C86   S    
C96   C114  S    
C69   C70   A    
C24   C111  A    
C2    H28   S    
Cr3   O29   S    
Cr5   O12   S    
C18   O2    A    
C109  H6    S    
C128  C132  A    
Cr1   O36   S    
Cr2   O28   S    
C71   C80   A    
C55   C65   A    
C90   C94   A    
C19   O50   A    
C10   C132  S    
C9    C131  S    
C22   O37   A    
C101  C105  A    
C122  H27   S    
C55   H53   S    
C76   O26   A    
C28   C45   S    
C110  C115  S    
Cr9   O24   S    
C63   H52   S    
C30   C34   A    
C24   H30   S    
C3    C132  A    
C48   C74   S    
Cr12  O9    S    
C46   H43   S    
Cr7   O34   S    
C19   O3    A    
C84   C85   A    
C47   C73   S    
C52   C64   A    
C113  H14   S    
C41   H39   S    
C27   C56   S    
C8    C9    S    
C39   C43   S    
C108  H5    S    
Cr9   O10   S    
C27   C31   A    
C57   H54   S    
C67   O17   A    
Cr11  O26   S    
C95   C117  A    
C60   C61   A    
C108  H68   S    
C108  C113  S    
C97   C119  A    
C2    C89   A    
C45   O19   A    
C62   C63   A    
C14   O41   A    
C50   C76   S    
C61   H50   S    
C99   C117  A    
C83   F2    S    
C37   C49   A    
C52   C121  S    
C98   C116  S    
Cr4   O4    S    
C28   C32   A    
C1    O14   A    
Cr5   O10   S    
Cr10  O25   S    
Cr4   O13   S    
C100  H23   S    
Cr8   O18   S    
C20   O4    A    
C13   C28   A    
C11   H26   S    
C32   C37   A    
Cr3   O33   S    
C124  O23   A    
C42   H44   S    
C109  H2    S    
C20   O51   A    
C16   O48   A    
C53   C125  S    
C103  F8    S    
C87   C105  A    
C54   C66   A    
C109  C114  S    
C38   C50   A    
C112  H4    S    
C106  H66   S    
Cr12  O31   S    
C26   C30   A    
C13   H29   S    
C48   C89   A    
C8    C130  S    
C107  H67   S    
C116  H13   S    
Cr12  O27   S    
C97   C115  S    
C26   C67   S    
C93   C97   A    
C112  C116  S    
C82   F1    S    
Cr3   O3    S    
C5    H19   S    
C105  H56   S    
C15   C87   S    
C84   F3    S    
C58   C68   A    
C18   C118  S    
C88   C93   A    
C123  O12   A    
C111  H34   S    
C121  O1    A    
C112  H8    S    
C4    C127  A    
C70   C79   A    
C3    C129  A    
C10   H25   S    
C59   C63   A    
C91   C108  S    
C56   O20   A    
C74   O28   A    
C54   C71   A    
C124  O33   A    
Cr1   O9    S    
C86   C104  A    
C12   C90   S    
C77   H59   S    
C23   O7    A    
Cr10  O47   S    
C54   C124  S    
C78   H1    S    
C57   C61   A    
C6    C7    A    
C22   O6    A    
Cr5   O37   S    
C1    O18   A    
C3    C11   S    
C21   O5    A    
C93   C110  S    
C25   O8    A    
C8    H62   S    
C33   C38   A    
Cr11  O21   S    
C43   H41   S    
C33   C41   S    
Cr9   O46   S    
Cr11  O13   S    
C13   C100  A    
C130  C131  A    
C14   C88   S    
C123  O32   A    
C15   O42   A    
C75   O29   A    
C35   H33   S    
C64   C65   A    
C21   O36   A    
C79   C83   A    
C12   O40   A    
C10   H64   S    
C1    C29   S    
C39   H35   S    
C77   C82   A    
C37   C44   S    
C46   H48   S    
C7    H21   S    
C94   C112  S    
C44   H42   S    
C35   C42   S    
C22   C126  S    
C31   C39   S    
C116  H17   S    
C36   C48   A    
C43   H46   S    
Cr8   O22   S    
Cr1   O14   S    
Cr2   O10   S    
C115  H11   S    
C125  O34   A    
C78   C122  A    
C127  C131  A    
C62   H51   S    
C38   C46   S    
C121  O31   A    
C10   C11   S    
Cr3   O7    S    
C113  H9    S    
C25   O39   A    
C42   H40   S    
C60   H49   S    
C40   C44   S    
C81   H60   S    
C40   H38   S    
C44   H47   S    
C82   C83   A    
Cr8   O44   S    
C102  C106  A    
C126  C130  A    
C31   C36   A    
C56   O16   A    
C36   C43   S    
C103  C107  A    
C34   C47   A    
C26   C122  A    
C47   C78   A    
C71   C72   A    
C115  H16   S    
C55   C60   A    
C53   C72   A    
C73   O27   A    
C18   O49   A    
C81   C85   A    
Cr6   O23   S    
C14   O46   A    
C49   C100  A    
Cr5   O41   S    
