data_str_m2_o10_o14_f0_pcu.sym.7
_audit_creation_date              2012-10-26T19:59:43-0400
_audit_creation_method            fapswitch 2.2
_symmetry_space_group_name_H-M    P1
_symmetry_Int_Tables_number       1
_space_group_crystal_system       triclinic
_cell_length_a                    10.771857
_cell_length_b                    8.697481
_cell_length_c                    7.450762
_cell_angle_alpha                 102.249921
_cell_angle_beta                  94.335629
_cell_angle_gamma                 92.605659
_cell_volume                      678.845320616

loop_
_atom_site_label
_atom_site_type_symbol
_atom_type_description
_atom_site_fract_x
_atom_site_fract_y
_atom_site_fract_z
_atom_type_partial_charge
C1    C     C_R   0.495527 0.200015 0.454525 0.577008
C2    C     C_R   0.512060 0.799987 0.545483 0.533265
C3    C     C_R   0.737565 0.507991 0.499321 0.546405
C4    C     C_R   0.152555 0.762005 0.750312 -0.104722
C5    C     C_R   0.098362 0.879888 0.870603 -0.122583
C6    C     C_R   0.969380 0.880769 0.869064 -0.110608
C7    C     C_R   0.893628 0.765161 0.745502 -0.093124
C8    C     C_R   0.946378 0.641391 0.625776 0.022753
C9    C     C_3   0.610638 0.050907 0.872882 0.007023
C10   C     C_3   0.693692 0.182273 0.997089 -0.337665
C11   C     C_R   0.077806 0.639305 0.629276 0.025037
C12   C     C_R   0.130085 0.516761 0.507219 0.004476
C13   C     C_R   0.054426 0.403641 0.380011 -0.147498
C14   C     C_R   0.926652 0.405981 0.376368 -0.145693
C15   C     C_R   0.871935 0.521355 0.499302 0.005679
C16   C     C_2   0.483476 0.032746 0.434649 -0.118126
C17   C     C_2   0.535240 0.967589 0.566178 0.212658
C18   C     C_R   0.263078 0.505618 0.502852 0.535240
Cu1   Cu    Cu3+1 0.513920 0.517380 0.684380 0.937168
Cu2   Cu    Cu3+1 0.486080 0.482620 0.315620 0.921143
H1    H     H_    0.094661 0.310593 0.285340 0.121943
H2    H     H_    0.638078 0.939425 0.909923 0.144161
H3    H     H_    0.511647 0.071128 0.900380 0.134504
H4    H     H_    0.667884 0.298016 0.972126 0.206119
H5    H     H_    0.684022 0.178256 0.143093 0.125966
H6    H     H_    0.792410 0.168344 0.968093 0.130788
H7    H     H_    0.597110 0.622220 0.051027 0.237033
H8    H     H_    0.252988 0.770091 0.752490 0.141493
H9    H     H_    0.156712 0.971918 0.964106 0.108137
H10   H     H_    0.928073 0.972489 0.962891 0.106127
H11   H     H_    0.794097 0.775568 0.743711 0.144792
H12   H     H_    0.870446 0.313525 0.281534 0.114247
H13   H     H_    0.423423 0.964588 0.318272 0.069325
H14   H     H_    0.403095 0.377562 0.948896 0.240481
N1    N     N_2   0.465100 0.456430 0.038520 -0.267908
N2    N     N_2   0.534900 0.543570 0.961480 -0.275597
O1    O     O_R   0.509050 0.286130 0.619770 -0.459323
O2    O     O_R   0.485540 0.256780 0.308360 -0.528561
O3    O     O_R   0.331410 0.514680 0.655740 -0.513326
O4    O     O_R   0.307900 0.485330 0.344330 -0.495097
O5    O     O_R   0.514460 0.743220 0.691640 -0.533050
O6    O     O_R   0.490950 0.713870 0.380230 -0.519288
O7    O     O_R   0.692100 0.514670 0.655670 -0.501026
O8    O     O_R   0.668590 0.485320 0.344260 -0.518178
O9    O     O_3   0.631993 0.050109 0.688310 -0.561597

loop_
_geom_bond_atom_site_label_1
_geom_bond_atom_site_label_2
_ccdc_geom_bond_type
Cu2   O6    S    
C11   C12   A    
C9    O9    S    
C6    C7    A    
H7    N2    S    
Cu2   O2    S    
C9    C10   S    
N1    N2    D    
C1    O1    A    
C18   O3    A    
C10   H6    S    
Cu1   Cu2   S    
C13   H1    S    
C7    C8    A    
C1    C16   S    
C13   C14   A    
C4    C11   A    
C3    O7    A    
C16   C17   D    
Cu1   O3    S    
C1    O2    A    
C2    O6    A    
C8    C11   A    
Cu2   O4    S    
C10   H5    S    
Cu2   O8    S    
Cu1   O7    S    
C8    C15   A    
C5    H9    S    
Cu1   N2    S    
C5    C6    A    
C16   H13   S    
C3    O8    A    
C7    H11   S    
C2    O5    A    
C3    C15   S    
C12   C13   A    
H14   N1    S    
C4    H8    S    
C12   C18   S    
C18   O4    A    
C9    H2    S    
C9    H3    S    
Cu1   O1    S    
C10   H4    S    
C14   C15   A    
Cu2   N1    S    
C14   H12   S    
C6    H10   S    
Cu1   O5    S    
C17   O9    S    
C4    C5    A    
C2    C17   S    
