data_str_m2_o10_o29_f0_pcu.sym.225
_audit_creation_date              2012-12-10T16:51:18-0500
_audit_creation_method            fapswitch 2.2
_symmetry_space_group_name_H-M    P1
_symmetry_Int_Tables_number       1
_space_group_crystal_system       triclinic
_cell_length_a                    27.800934
_cell_length_b                    8.730496
_cell_length_c                    7.473644
_cell_angle_alpha                 103.144056
_cell_angle_beta                  94.855845
_cell_angle_gamma                 93.476094
_cell_volume                      1754.13417354

loop_
_atom_site_label
_atom_site_type_symbol
_atom_type_description
_atom_site_fract_x
_atom_site_fract_y
_atom_site_fract_z
_atom_type_partial_charge
C1    C     C_R   0.497865 0.200211 0.453817 0.846234
C2    C     C_R   0.502135 0.799789 0.546183 0.846206
C3    C     C_R   0.102357 0.496440 0.513154 -0.093308
C4    C     C_R   0.897640 0.503506 0.486975 -0.093309
C5    C     C_R   0.124088 0.354344 0.448637 -0.029101
C6    C     C_R   0.875909 0.645591 0.551551 -0.029098
C7    C     C_R   0.094259 0.213243 0.380065 0.174329
C8    C     C_R   0.905739 0.786682 0.620197 0.174341
C9    C     C_R   0.132106 0.637749 0.583378 -0.007027
C10   C     C_R   0.867891 0.362208 0.416681 -0.007035
C11   C     C_R   0.354695 0.504277 0.504756 -0.028585
C12   C     C_R   0.645300 0.495695 0.495254 -0.028539
C13   C     C_R   0.969987 0.357412 0.427970 0.068857
C14   C     C_R   0.030010 0.642541 0.572122 0.068877
C15   C     C_R   0.978697 0.644356 0.564164 0.016100
C16   C     C_R   0.021300 0.355586 0.435996 0.016104
C17   C     C_R   0.948975 0.501881 0.493028 0.067257
C18   C     C_R   0.051023 0.498066 0.507100 0.067264
C19   C     C_R   0.938611 0.219123 0.355832 -0.234680
C20   C     C_R   0.061386 0.780851 0.644139 -0.234714
C21   C     C_R   0.888788 0.221912 0.350664 -0.155052
C22   C     C_R   0.111208 0.778060 0.649309 -0.155073
C23   C     C_R   0.407575 0.501735 0.501408 0.809865
C24   C     C_R   0.592423 0.498258 0.498592 0.809895
C25   C     C_R   0.044068 0.215119 0.375409 -0.273479
C26   C     C_R   0.955930 0.784805 0.624858 -0.273461
C27   C     C_2   0.491386 0.032804 0.431385 -0.045094
C28   C     C_2   0.508614 0.967196 0.568615 -0.045088
C29   C     C_R   0.175138 0.359234 0.454198 0.560759
C30   C     C_R   0.824859 0.640703 0.545973 0.560763
C31   C     C_R   0.182469 0.636274 0.585441 0.541114
C32   C     C_R   0.817528 0.363682 0.414609 0.541102
C33   C     C_R   0.275187 0.546360 0.370803 -0.157177
C34   C     C_R   0.724789 0.453303 0.629066 -0.157170
C35   C     C_R   0.325348 0.548258 0.363598 0.117974
C36   C     C_R   0.674628 0.451419 0.636244 0.117865
C37   C     C_R   0.332965 0.461452 0.651376 -0.269321
C38   C     C_R   0.667045 0.538793 0.348819 -0.269387
C39   C     C_R   0.282998 0.459822 0.656869 -0.109648
C40   C     C_R   0.717013 0.540414 0.343357 -0.109645
C41   C     C_R   0.254100 0.501778 0.516379 0.340202
C42   C     C_R   0.745895 0.498170 0.483686 0.340128
Cu1   Cu    Cu3+1 0.505380 0.517380 0.684380 0.997725
Cu2   Cu    Cu3+1 0.494620 0.482620 0.315620 0.997732
H1    H     H_    0.354544 0.426844 0.760605 0.161007
H2    H     H_    0.645479 0.573619 0.239718 0.160969
H3    H     H_    0.266668 0.425481 0.769873 0.141095
H4    H     H_    0.733356 0.574969 0.230501 0.141209
H5    H     H_    0.747467 0.419829 0.736759 0.141977
H6    H     H_    0.252495 0.579605 0.262977 0.141901
H7    H     H_    0.866603 0.112209 0.294879 0.195528
H8    H     H_    0.133393 0.887778 0.705008 0.195540
H9    H     H_    0.950920 0.105100 0.301203 0.139531
H10   H     H_    0.049077 0.894901 0.698631 0.139529
H11   H     H_    0.024170 0.102111 0.322603 0.138173
H12   H     H_    0.975828 0.897798 0.677788 0.138173
N1    N     N_R   0.202715 0.498757 0.520477 -0.476615
N2    N     N_R   0.797281 0.501189 0.479626 -0.476601
N3    N     N_2   0.486510 0.456430 0.038510 0.014708
N4    N     N_2   0.513490 0.543570 0.961490 0.014709
O1    O     O_R   0.503500 0.286120 0.619780 -0.528934
O2    O     O_R   0.496500 0.713880 0.380220 -0.528957
O3    O     O_R   0.494410 0.256780 0.308360 -0.617708
O4    O     O_R   0.505590 0.743220 0.691640 -0.617703
O5    O     O_R   0.434810 0.514700 0.655690 -0.576250
O6    O     O_R   0.565190 0.485300 0.344310 -0.576234
O7    O     O_R   0.425720 0.485350 0.344280 -0.562469
O8    O     O_R   0.574280 0.514650 0.655720 -0.562517
O9    O     O_2   0.197330 0.226854 0.392849 -0.483033
O10   O     O_2   0.802669 0.773074 0.607377 -0.483066
O11   O     O_2   0.788869 0.228625 0.348755 -0.520691
O12   O     O_2   0.211127 0.771342 0.651222 -0.520640
N5    N     N_3   0.451928 0.350961 0.922027 -0.409888
H13   H     H_    0.418530 0.376007 0.970976 0.208670
H14   H     H_    0.458470 0.238821 0.940628 0.205130
N6    N     N_3   0.548074 0.649033 0.077974 -0.409905
H15   H     H_    0.581469 0.623995 0.029002 0.208647
H16   H     H_    0.541529 0.761179 0.059400 0.205126
N7    N     N_3   0.114321 0.065846 0.313316 -0.501991
H17   H     H_    0.100478 0.021172 0.175442 0.217499
H18   H     H_    0.102616 0.986525 0.389460 0.221087
N8    N     N_3   0.885678 0.934071 0.687004 -0.502004
H19   H     H_    0.899528 0.978727 0.824875 0.217465
H20   H     H_    0.897374 0.013408 0.610863 0.221120
N9    N     N_3   0.653735 0.401538 0.784534 -0.562110
H21   H     H_    0.663044 0.286984 0.782749 0.231755
H22   H     H_    0.669387 0.475387 0.908793 0.211055
N10   N     N_3   0.346217 0.597823 0.215077 -0.562165
H23   H     H_    0.336882 0.712296 0.216520 0.231783
H24   H     H_    0.330568 0.523723 0.090977 0.210922
N11   N     N_3   0.462999 0.941590 0.267299 -0.558944
H25   H     H_    0.429006 0.986210 0.259758 0.212741
H26   H     H_    0.479974 0.956791 0.152218 0.220933
N12   N     N_3   0.537001 0.058410 0.732701 -0.558921
H27   H     H_    0.570994 0.013790 0.740245 0.212721
H28   H     H_    0.520025 0.043211 0.847781 0.220938

loop_
_geom_bond_atom_site_label_1
_geom_bond_atom_site_label_2
_ccdc_geom_bond_type
C8    C26   A    
N5    H13   S    
C14   C18   A    
Cu2   O6    S    
C34   C42   A    
C32   N2    A    
C42   N2    S    
C39   C41   A    
N9    H21   S    
C8    N8    S    
C7    N7    S    
C19   C21   A    
N6    H16   S    
C9    C22   A    
Cu2   N3    S    
C3    C18   A    
C28   N12   S    
C23   O7    A    
C11   C37   A    
Cu1   O8    S    
C27   N11   S    
C12   C36   A    
N3    N5    S    
C5    C29   A    
C24   O6    A    
C19   H9    S    
C40   C42   A    
N3    N4    D    
Cu2   O3    S    
N5    H14   S    
C1    O3    A    
C30   O10   S    
C2    O4    A    
Cu1   O4    S    
C32   O11   S    
C29   O9    S    
N9    H22   S    
C10   C21   A    
C13   C19   A    
C14   C20   A    
N6    H15   S    
C20   H10   S    
N11   H25   S    
N7    H18   S    
C9    C31   A    
C15   C26   A    
C6    C8    A    
Cu2   O2    S    
C33   H6    S    
C39   H3    S    
N4    N6    S    
C1    O1    A    
Cu1   Cu2   S    
C3    C9    A    
N11   H26   S    
C35   N10   S    
Cu1   O5    S    
N12   H28   S    
Cu1   N4    S    
C4    C17   A    
C4    C6    A    
C31   O12   S    
C6    C30   A    
C29   N1    A    
N8    H20   S    
C37   H1    S    
C21   H7    S    
Cu1   O1    S    
C5    C7    A    
C16   C25   A    
C40   H4    S    
C34   H5    S    
N10   H24   S    
C25   H11   S    
C20   C22   A    
C3    C5    A    
C26   H12   S    
C15   C17   A    
C36   N9    S    
C12   C24   S    
C7    C25   A    
C13   C17   A    
C33   C41   A    
C23   O5    A    
C11   C35   A    
C41   N1    S    
C37   C39   A    
C38   C40   A    
C31   N1    A    
C30   N2    A    
C11   C23   S    
C33   C35   A    
C22   H8    S    
C34   C36   A    
C12   C38   A    
N12   H27   S    
C38   H2    S    
C24   O8    A    
N7    H17   S    
C10   C32   A    
N10   H23   S    
C16   C18   A    
N8    H19   S    
C13   C16   A    
C27   C28   D    
C1    C27   S    
C14   C15   A    
Cu2   O7    S    
C2    C28   S    
C4    C10   A    
C2    O2    A    
