data_str_m4_o22_o24_f0_acs.sym.129
_audit_creation_date              2012-12-11T15:08:41-0500
_audit_creation_method            fapswitch 2.2
_symmetry_space_group_name_H-M    P1
_symmetry_Int_Tables_number       1
_space_group_crystal_system       triclinic
_cell_length_a                    19.38601
_cell_length_b                    11.344738
_cell_length_c                    18.709279
_cell_angle_alpha                 90.221256
_cell_angle_beta                  90.179345
_cell_angle_gamma                 89.935661
_cell_volume                      4114.66346748

loop_
_atom_site_label
_atom_site_type_symbol
_atom_type_description
_atom_site_fract_x
_atom_site_fract_y
_atom_site_fract_z
_atom_type_partial_charge
C1    C     C_R   0.271791 0.046383 0.852504 0.523394
C2    C     C_R   0.727706 0.043691 0.146434 0.537873
C3    C     C_R   0.771791 0.546382 0.852504 0.523394
C4    C     C_R   0.227706 0.543691 0.146434 0.537873
C5    C     C_3   0.520637 0.724831 0.965002 -0.113785
C6    C     C_3   0.479964 0.727963 0.035217 -0.114482
C7    C     C_3   0.020637 0.224831 0.965002 -0.113786
C8    C     C_3   0.979964 0.227963 0.035218 -0.114482
C9    C     C_3   0.314182 0.538498 0.046466 -0.275778
C10   C     C_3   0.687539 0.539446 0.952822 -0.275836
C11   C     C_3   0.814183 0.038498 0.046466 -0.275778
C12   C     C_3   0.187539 0.039446 0.952822 -0.275836
C13   C     C_3   0.325384 0.574326 0.968153 -0.259574
C14   C     C_3   0.677841 0.564243 0.032766 -0.260575
C15   C     C_3   0.825384 0.074326 0.968153 -0.259574
C16   C     C_3   0.177841 0.064243 0.032766 -0.260576
C17   C     C_3   0.182162 0.539522 0.026073 -0.212113
C18   C     C_3   0.820901 0.537249 0.971115 -0.198917
C19   C     C_3   0.682162 0.039522 0.026073 -0.212113
C20   C     C_3   0.320901 0.037248 0.971115 -0.198918
C21   C     C_3   0.246154 0.719780 0.065846 0.152101
C22   C     C_3   0.758186 0.720414 0.938888 0.135226
C23   C     C_3   0.746154 0.219780 0.065846 0.152100
C24   C     C_3   0.258186 0.220414 0.938888 0.135227
C25   C     C_3   0.243659 0.584344 0.073461 0.087333
C26   C     C_3   0.758487 0.585283 0.926529 0.085123
C27   C     C_3   0.743659 0.084344 0.073461 0.087333
C28   C     C_3   0.258487 0.085283 0.926529 0.085123
C29   C     C_3   0.259547 0.633317 0.937441 0.011404
C30   C     C_3   0.743762 0.620975 0.064382 0.011260
C31   C     C_3   0.759547 0.133317 0.937441 0.011404
C32   C     C_3   0.243762 0.120975 0.064382 0.011260
C33   C     C_3   0.199289 0.545883 0.946436 -0.262846
C34   C     C_3   0.805595 0.538156 0.051027 -0.277871
C35   C     C_3   0.699289 0.045883 0.946436 -0.262846
C36   C     C_3   0.305595 0.038156 0.051027 -0.277871
C37   C     C_3   0.240111 0.744219 0.983922 -0.196660
C38   C     C_3   0.759733 0.736924 0.022144 -0.170590
C39   C     C_3   0.740111 0.244219 0.983922 -0.196660
C40   C     C_3   0.259733 0.236924 0.022144 -0.170591
C41   C     C_3   0.493950 0.700833 0.457764 -0.234098
C42   C     C_3   0.492567 0.700415 0.537781 -0.228224
C43   C     C_3   0.993950 0.200833 0.457764 -0.234098
C44   C     C_3   0.992567 0.200415 0.537781 -0.228224
C45   C     C_R   0.446028 0.817912 0.862284 0.534946
C46   C     C_R   0.555965 0.817326 0.137827 0.538146
C47   C     C_R   0.946028 0.317912 0.862284 0.534946
C48   C     C_R   0.055965 0.317326 0.137827 0.538146
C49   C     C_3   0.568005 0.882980 0.473204 -0.223354
C50   C     C_3   0.436845 0.909197 0.526797 -0.212240
C51   C     C_3   0.068005 0.382980 0.473204 -0.223354
C52   C     C_3   0.936845 0.409197 0.526797 -0.212240
C53   C     C_3   0.444929 0.901176 0.444738 -0.257178
C54   C     C_3   0.558706 0.881561 0.555356 -0.263313
C55   C     C_3   0.944929 0.401176 0.444738 -0.257178
C56   C     C_3   0.058706 0.381561 0.555356 -0.263313
C57   C     C_3   0.508322 0.827452 0.429986 0.058957
C58   C     C_3   0.488289 0.828099 0.568571 0.064432
C59   C     C_3   0.008322 0.327452 0.429986 0.058957
C60   C     C_3   0.988289 0.328099 0.568571 0.064432
C61   C     C_3   0.183845 0.661929 0.456865 -0.234454
C62   C     C_3   0.822737 0.641919 0.539462 -0.228361
C63   C     C_3   0.683845 0.161929 0.456865 -0.234454
C64   C     C_3   0.322737 0.141919 0.539462 -0.228360
C65   C     C_3   0.185714 0.666391 0.536896 -0.225954
C66   C     C_3   0.820808 0.645787 0.459402 -0.232728
C67   C     C_3   0.685714 0.166391 0.536896 -0.225954
C68   C     C_3   0.320808 0.145787 0.459402 -0.232728
C69   C     C_3   0.240086 0.461399 0.472338 -0.217705
C70   C     C_3   0.744149 0.455346 0.527260 -0.208169
C71   C     C_3   0.740086 0.961399 0.472338 -0.217705
C72   C     C_3   0.244149 0.955346 0.527260 -0.208169
C73   C     C_3   0.309698 0.634950 0.442797 -0.259180
C74   C     C_3   0.697913 0.648956 0.558089 -0.264246
C75   C     C_3   0.809698 0.134950 0.442797 -0.259180
C76   C     C_3   0.197913 0.148955 0.558089 -0.264246
C77   C     C_3   0.240781 0.577070 0.429069 0.067745
C78   C     C_3   0.760298 0.571180 0.569777 0.072179
C79   C     C_3   0.740780 0.077070 0.429069 0.067745
C80   C     C_3   0.260298 0.071180 0.569777 0.072179
C81   C     C_3   0.252809 0.608345 0.567011 0.067497
C82   C     C_3   0.749101 0.604370 0.431964 0.061641
C83   C     C_3   0.752810 0.108345 0.567011 0.067497
C84   C     C_3   0.249101 0.104370 0.431964 0.061641
C85   C     C_3   0.244617 0.477157 0.554197 -0.269020
C86   C     C_3   0.743536 0.473153 0.445715 -0.263081
C87   C     C_3   0.744617 0.977157 0.554197 -0.269020
C88   C     C_3   0.243536 0.973153 0.445715 -0.263082
C89   C     C_R   0.269385 0.669457 0.860878 0.537215
C90   C     C_R   0.735728 0.650933 0.142200 0.522531
C91   C     C_R   0.769385 0.169457 0.860878 0.537216
C92   C     C_R   0.235728 0.150932 0.142200 0.522532
C93   C     C_3   0.318967 0.643831 0.524623 -0.212853
C94   C     C_3   0.692088 0.665303 0.476363 -0.223708
C95   C     C_3   0.818967 0.143831 0.524623 -0.212853
C96   C     C_3   0.192088 0.165303 0.476363 -0.223708
C97   C     C_R   0.273417 0.042449 0.645526 0.530963
C98   C     C_R   0.727459 0.045334 0.353449 0.514173
C99   C     C_R   0.773417 0.542449 0.645526 0.530963
C100  C     C_R   0.227459 0.545334 0.353449 0.514173
C101  C     C_R   0.468043 0.822721 0.645056 0.544866
C102  C     C_R   0.529891 0.822919 0.353680 0.538780
C103  C     C_R   0.968043 0.322721 0.645056 0.544866
C104  C     C_R   0.029891 0.322919 0.353680 0.538780
C105  C     C_R   0.261082 0.641148 0.643215 0.536481
C106  C     C_R   0.739659 0.639294 0.356003 0.529289
C107  C     C_R   0.761082 0.141148 0.643215 0.536481
C108  C     C_R   0.239659 0.139294 0.356003 0.529289
C109  C     C_3   0.482625 0.920823 0.034862 -0.106857
C110  C     C_3   0.523883 0.917704 0.963947 -0.109063
C111  C     C_3   0.982625 0.420823 0.034862 -0.106857
C112  C     C_3   0.023883 0.417704 0.963947 -0.109063
C113  C     C_3   0.433303 0.825560 0.005401 -0.159637
C114  C     C_3   0.570280 0.818819 0.994238 -0.158881
C115  C     C_3   0.933303 0.325560 0.005401 -0.159637
C116  C     C_3   0.070280 0.318819 0.994238 -0.158881
C117  C     C_3   0.474608 0.823190 0.935470 0.058258
C118  C     C_3   0.528879 0.822630 0.064104 0.058268
C119  C     C_3   0.974608 0.323190 0.935470 0.058258
C120  C     C_3   0.028879 0.322630 0.064104 0.058268
Cr1   Cr    Cr6+3 0.229620 0.836040 0.749110 0.984626
Cr2   Cr    Cr6+3 0.770380 0.836040 0.250890 0.985287
Cr3   Cr    Cr6+3 0.729620 0.336040 0.749110 0.984626
Cr4   Cr    Cr6+3 0.270380 0.336040 0.250890 0.985287
Cr5   Cr    Cr6+3 0.387630 0.990680 0.750730 0.980104
Cr6   Cr    Cr6+3 0.612370 0.990680 0.249270 0.997511
Cr7   Cr    Cr6+3 0.887630 0.490680 0.750730 0.980104
Cr8   Cr    Cr6+3 0.112370 0.490680 0.249270 0.997511
Cr9   Cr    Cr6+3 0.386020 0.676590 0.749210 0.965399
Cr10  Cr    Cr6+3 0.613980 0.676590 0.250790 0.981266
Cr11  Cr    Cr6+3 0.886020 0.176590 0.749210 0.965399
Cr12  Cr    Cr6+3 0.113980 0.176590 0.250790 0.981266
H1    H     H_    0.378099 0.819069 0.015178 0.079034
H2    H     H_    0.625334 0.808105 0.984912 0.081276
H3    H     H_    0.878099 0.319069 0.015178 0.079034
H4    H     H_    0.125334 0.308105 0.984912 0.081276
H5    H     H_    0.296962 0.753537 0.083297 0.085380
H6    H     H_    0.709863 0.758175 0.916531 0.072142
H7    H     H_    0.796962 0.253537 0.083297 0.085380
H8    H     H_    0.209863 0.258175 0.916531 0.072141
H9    H     H_    0.271628 0.818412 0.968720 0.071383
H10   H     H_    0.725315 0.806704 0.039566 0.072436
H11   H     H_    0.771628 0.318412 0.968720 0.071383
H12   H     H_    0.225316 0.306704 0.039566 0.072436
H13   H     H_    0.185646 0.767210 0.971958 0.152976
H14   H     H_    0.812915 0.762609 0.037581 0.163485
H15   H     H_    0.685646 0.267210 0.971958 0.152976
H16   H     H_    0.312915 0.262609 0.037581 0.163485
H17   H     H_    0.635789 0.095539 0.035553 0.175645
H18   H     H_    0.367212 0.093575 0.962755 0.183510
H19   H     H_    0.135789 0.595539 0.035553 0.175645
H20   H     H_    0.867212 0.593575 0.962755 0.183510
H21   H     H_    0.152913 0.574836 0.916165 0.133133
H22   H     H_    0.851845 0.568232 0.081243 0.127647
H23   H     H_    0.652913 0.074836 0.916164 0.133133
H24   H     H_    0.351845 0.068232 0.081243 0.127647
H25   H     H_    0.532054 0.633503 0.441249 0.136386
H26   H     H_    0.451948 0.642060 0.555545 0.136136
H27   H     H_    0.032054 0.133503 0.441249 0.136386
H28   H     H_    0.951948 0.142060 0.555545 0.136136
H29   H     H_    0.444677 0.669939 0.435673 0.116810
H30   H     H_    0.539842 0.656454 0.558191 0.111712
H31   H     H_    0.944678 0.169939 0.435673 0.116810
H32   H     H_    0.039842 0.156454 0.558191 0.111712
H33   H     H_    0.608910 0.825513 0.459820 0.112371
H34   H     H_    0.383623 0.897897 0.543606 0.113611
H35   H     H_    0.108910 0.325513 0.459820 0.112371
H36   H     H_    0.883623 0.397897 0.543606 0.113611
H37   H     H_    0.599449 0.828789 0.581829 0.104835
H38   H     H_    0.398781 0.861476 0.419497 0.099159
H39   H     H_    0.099449 0.328789 0.581829 0.104835
H40   H     H_    0.898781 0.361476 0.419497 0.099159
H41   H     H_    0.467764 0.002058 0.064175 0.118063
H42   H     H_    0.540991 0.996286 0.933798 0.114122
H43   H     H_    0.967764 0.502058 0.064175 0.118063
H44   H     H_    0.040991 0.496286 0.933798 0.114122
H45   H     H_    0.453211 0.989862 0.421420 0.115521
H46   H     H_    0.561865 0.972153 0.577829 0.110165
H47   H     H_    0.953212 0.489862 0.421420 0.115521
H48   H     H_    0.061865 0.472153 0.577829 0.110165
H49   H     H_    0.451792 0.999939 0.541348 0.119820
H50   H     H_    0.577607 0.973847 0.455066 0.129469
H51   H     H_    0.951792 0.499939 0.541348 0.119820
H52   H     H_    0.077607 0.473847 0.455066 0.129469
H53   H     H_    0.130721 0.637227 0.441166 0.136652
H54   H     H_    0.872878 0.610372 0.556650 0.136163
H55   H     H_    0.630721 0.137227 0.441166 0.136652
H56   H     H_    0.372878 0.110372 0.556650 0.136163
H57   H     H_    0.191948 0.750311 0.434108 0.114097
H58   H     H_    0.821507 0.733489 0.560830 0.104853
H59   H     H_    0.691948 0.250311 0.434107 0.114097
H60   H     H_    0.321507 0.233489 0.560830 0.104852
H61   H     H_    0.178021 0.756938 0.553929 0.136007
H62   H     H_    0.834776 0.736590 0.443740 0.134736
H63   H     H_    0.678021 0.256938 0.553929 0.136007
H64   H     H_    0.334776 0.236590 0.443740 0.134736
H65   H     H_    0.139809 0.620073 0.558433 0.112901
H66   H     H_    0.861079 0.589247 0.436300 0.117550
H67   H     H_    0.639809 0.120073 0.558433 0.112901
H68   H     H_    0.361079 0.089247 0.436300 0.117550
H69   H     H_    0.690786 0.928176 0.459444 0.113391
H70   H     H_    0.276577 0.881321 0.543056 0.112566
H71   H     H_    0.190787 0.428176 0.459444 0.113391
H72   H     H_    0.776577 0.381320 0.543056 0.112566
H73   H     H_    0.697791 0.943541 0.581071 0.103627
H74   H     H_    0.286977 0.925089 0.420928 0.101096
H75   H     H_    0.197791 0.443541 0.581071 0.103627
H76   H     H_    0.786977 0.425089 0.420928 0.101096
H77   H     H_    0.350401 0.578593 0.418709 0.115663
H78   H     H_    0.650673 0.607390 0.579919 0.110335
H79   H     H_    0.850401 0.078593 0.418709 0.115663
H80   H     H_    0.150673 0.107390 0.579919 0.110334
H81   H     H_    0.311761 0.723129 0.417905 0.098814
H82   H     H_    0.704551 0.734652 0.586109 0.099231
H83   H     H_    0.811761 0.223129 0.417905 0.098814
H84   H     H_    0.204551 0.234652 0.586109 0.099231
H85   H     H_    0.534652 0.642550 0.936417 0.124337
H86   H     H_    0.463357 0.648361 0.064563 0.126475
H87   H     H_    0.034652 0.142550 0.936417 0.124337
H88   H     H_    0.963357 0.148361 0.064563 0.126475
H89   H     H_    0.339387 0.729213 0.540927 0.113974
H90   H     H_    0.702284 0.755179 0.466197 0.113194
H91   H     H_    0.839387 0.229213 0.540927 0.113974
H92   H     H_    0.202284 0.255179 0.466197 0.113194
H93   H     H_    0.357819 0.576549 0.538541 0.119425
H94   H     H_    0.640780 0.636987 0.457629 0.129910
H95   H     H_    0.857819 0.076549 0.538541 0.119425
H96   H     H_    0.140780 0.136987 0.457629 0.129910
H97   H     H_    0.281540 0.401812 0.454045 0.130930
H98   H     H_    0.690761 0.431564 0.541758 0.120022
H99   H     H_    0.781540 0.901812 0.454045 0.130930
H100  H     H_    0.190761 0.931564 0.541758 0.120022
H101  H     H_    0.289228 0.427478 0.576222 0.101789
H102  H     H_    0.694469 0.440441 0.422133 0.110846
H103  H     H_    0.789228 0.927478 0.576222 0.101789
H104  H     H_    0.194469 0.940441 0.422133 0.110847
H105  H     H_    0.317716 0.443068 0.051498 0.150075
H106  H     H_    0.680997 0.445231 0.941957 0.145912
H107  H     H_    0.817716 0.943068 0.051498 0.150076
H108  H     H_    0.180997 0.945231 0.941957 0.145912
H109  H     H_    0.356181 0.574357 0.080565 0.099883
H110  H     H_    0.645876 0.583158 0.921913 0.100249
H111  H     H_    0.856181 0.074357 0.080565 0.099883
H112  H     H_    0.145877 0.083158 0.921913 0.100249
H113  H     H_    0.369627 0.634536 0.963535 0.124111
H114  H     H_    0.633114 0.623242 0.041110 0.134628
H115  H     H_    0.869627 0.134536 0.963536 0.124111
H116  H     H_    0.133114 0.123242 0.041110 0.134629
H117  H     H_    0.339331 0.494967 0.936910 0.181516
H118  H     H_    0.664947 0.480926 0.060003 0.173816
H119  H     H_    0.839331 0.994968 0.936910 0.181516
H120  H     H_    0.164947 0.980926 0.060003 0.173816
H121  H     H_    0.664944 0.952904 0.042752 0.092426
H122  H     H_    0.338353 0.952383 0.950336 0.094550
H123  H     H_    0.164944 0.452904 0.042752 0.092427
H124  H     H_    0.838353 0.452383 0.950336 0.094550
H125  H     H_    0.712681 0.957105 0.927652 0.125983
H126  H     H_    0.295411 0.947512 0.066995 0.120680
H127  H     H_    0.212681 0.457105 0.927652 0.125982
H128  H     H_    0.795411 0.447512 0.066995 0.120680
O1    O     O_R   0.214130 0.708570 0.829890 -0.524277
O2    O     O_R   0.785870 0.708570 0.170110 -0.526285
O3    O     O_R   0.714130 0.208570 0.829890 -0.524277
O4    O     O_R   0.285870 0.208570 0.170110 -0.526285
O5    O     O_R   0.446360 0.919990 0.675230 -0.506958
O6    O     O_R   0.553640 0.919990 0.324770 -0.506774
O7    O     O_R   0.946360 0.419990 0.675230 -0.506958
O8    O     O_R   0.053640 0.419990 0.324770 -0.506774
O9    O     O_R   0.457170 0.717300 0.668380 -0.532259
O10   O     O_R   0.542830 0.717300 0.331620 -0.530847
O11   O     O_R   0.957170 0.217300 0.668380 -0.532259
O12   O     O_R   0.042830 0.217300 0.331620 -0.530847
O13   O     O_R   0.320870 0.624890 0.673130 -0.521233
O14   O     O_R   0.679130 0.624890 0.326870 -0.516198
O15   O     O_R   0.820870 0.124890 0.673130 -0.521233
O16   O     O_R   0.179130 0.124890 0.326870 -0.516198
O17   O     O_3   0.334430 0.834430 0.749680 -0.283799
O18   O     O_3   0.665570 0.834430 0.250320 -0.281228
O19   O     O_3   0.834430 0.334430 0.749680 -0.283799
O20   O     O_3   0.165570 0.334430 0.250320 -0.281228
O21   O     O_R   0.236050 0.959150 0.825270 -0.529137
O22   O     O_R   0.763950 0.959150 0.174730 -0.532463
O23   O     O_R   0.736050 0.459150 0.825270 -0.529137
O24   O     O_R   0.263950 0.459150 0.174730 -0.532463
O25   O     O_R   0.332100 0.076650 0.832310 -0.507286
O26   O     O_R   0.667900 0.076650 0.167690 -0.485270
O27   O     O_R   0.832100 0.576650 0.832310 -0.507287
O28   O     O_R   0.167900 0.576650 0.167690 -0.485270
O29   O     O_R   0.446500 0.918620 0.826240 -0.504333
O30   O     O_R   0.553500 0.918620 0.173760 -0.504864
O31   O     O_R   0.946500 0.418620 0.826240 -0.504333
O32   O     O_R   0.053500 0.418620 0.173760 -0.504864
O33   O     O_R   0.457310 0.715830 0.831280 -0.528990
O34   O     O_R   0.542690 0.715830 0.168720 -0.524542
O35   O     O_R   0.957310 0.215830 0.831280 -0.528990
O36   O     O_R   0.042690 0.215830 0.168720 -0.524542
O37   O     O_R   0.321000 0.623520 0.824130 -0.526185
O38   O     O_R   0.679000 0.623520 0.175870 -0.528836
O39   O     O_R   0.821000 0.123520 0.824130 -0.526185
O40   O     O_R   0.179000 0.123520 0.175870 -0.528836
O41   O     O_R   0.213990 0.710040 0.667000 -0.530046
O42   O     O_R   0.786010 0.710040 0.333000 -0.530167
O43   O     O_R   0.713990 0.210040 0.667000 -0.530046
O44   O     O_R   0.286010 0.210040 0.333000 -0.530167
O45   O     O_R   0.235920 0.960520 0.674260 -0.512157
O46   O     O_R   0.764080 0.960520 0.325740 -0.512350
O47   O     O_R   0.735920 0.460520 0.674260 -0.512157
O48   O     O_R   0.264080 0.460520 0.325740 -0.512350
O49   O     O_R   0.331960 0.078120 0.669410 -0.553725
O50   O     O_R   0.668040 0.078120 0.330590 -0.550870
O51   O     O_R   0.831960 0.578120 0.669410 -0.553725
O52   O     O_R   0.168040 0.578120 0.330590 -0.550870
O53   O     O_3   0.190870 0.772538 0.104471 -0.578190
C121  C     C_3   0.211084 0.836228 0.167242 0.017906
H129  H     H_    0.163231 0.856359 0.197446 0.161569
H130  H     H_    0.231234 0.922269 0.152923 0.140863
C122  C     C_3   0.261891 0.776770 0.220005 -0.282114
H131  H     H_    0.233273 0.713488 0.253030 0.197995
H132  H     H_    0.304982 0.729048 0.194259 0.142806
C123  C     C_3   0.294075 0.868067 0.269686 -0.478809
H133  H     H_    0.324591 0.932965 0.238690 0.167915
H134  H     H_    0.329062 0.823898 0.308188 0.130814
H135  H     H_    0.252734 0.914675 0.299092 0.154274
O54   O     O_3   0.817363 0.776007 0.909098 -0.591223
C124  C     C_3   0.805003 0.820651 0.839343 0.021045
H136  H     H_    0.776837 0.905026 0.841650 0.129132
H137  H     H_    0.773253 0.760663 0.805657 0.138319
C125  C     C_3   0.874349 0.843427 0.802998 -0.222588
H138  H     H_    0.899969 0.919559 0.829521 0.159565
H139  H     H_    0.908740 0.765636 0.808974 0.185902
C126  C     C_3   0.865143 0.869851 0.723636 -0.453612
H140  H     H_    0.860274 0.786910 0.692863 0.158618
H141  H     H_    0.910533 0.918908 0.703327 0.141065
H142  H     H_    0.817779 0.922372 0.714612 0.168241
O55   O     O_3   0.690870 0.272538 0.104471 -0.578190
C127  C     C_3   0.711084 0.336228 0.167242 0.017906
H143  H     H_    0.663231 0.356359 0.197446 0.161569
H144  H     H_    0.731233 0.422269 0.152923 0.140863
C128  C     C_3   0.761891 0.276770 0.220005 -0.282114
H145  H     H_    0.733273 0.213488 0.253030 0.197995
H146  H     H_    0.804982 0.229048 0.194259 0.142806
C129  C     C_3   0.794074 0.368067 0.269686 -0.478809
H147  H     H_    0.824591 0.432965 0.238690 0.167915
H148  H     H_    0.829062 0.323898 0.308188 0.130814
H149  H     H_    0.752734 0.414675 0.299092 0.154274
O56   O     O_3   0.317363 0.276007 0.909097 -0.591223
C130  C     C_3   0.305003 0.320652 0.839343 0.021045
H150  H     H_    0.276837 0.405027 0.841651 0.129132
H151  H     H_    0.273252 0.260664 0.805657 0.138318
C131  C     C_3   0.374349 0.343427 0.802998 -0.222588
H152  H     H_    0.399968 0.419559 0.829520 0.159565
H153  H     H_    0.408739 0.265636 0.808973 0.185902
C132  C     C_3   0.365142 0.369851 0.723635 -0.453612
H154  H     H_    0.360272 0.286911 0.692862 0.158617
H155  H     H_    0.410532 0.418908 0.703326 0.141066
H156  H     H_    0.317778 0.422373 0.714612 0.168241

loop_
_geom_bond_atom_site_label_1
_geom_bond_atom_site_label_2
_ccdc_geom_bond_type
C82   C94   S    
C55   C59   S    
C35   H125  S    
C13   H113  S    
C73   C93   S    
C47   O31   A    
C42   C58   S    
C29   C89   S    
C16   H120  S    
C89   O37   A    
C48   C120  S    
C24   H8    S    
C57   C102  S    
Cr6   O18   S    
Cr7   O7    S    
C85   H101  S    
C59   C104  S    
Cr1   O17   S    
C5    C6    S    
Cr10  O10   S    
C109  H41   S    
Cr4   O4    S    
Cr12  O16   S    
C29   C33   S    
C87   H103  S    
C30   C38   S    
C77   C100  S    
C9    C13   S    
C87   H73   S    
C11   C15   S    
C5    H85   S    
C12   C16   S    
O54   C124  S    
C98   O50   A    
C99   O47   A    
C19   H17   S    
C103  O7    A    
C60   C103  S    
C107  O15   A    
Cr4   O24   S    
C83   C107  S    
C113  H1    S    
C74   H82   S    
C61   H57   S    
C54   H37   S    
C17   H19   S    
C18   H20   S    
C132  H155  S    
C109  C118  S    
C16   H116  S    
C70   H72   S    
Cr5   O25   S    
C50   C53   S    
C75   C95   S    
C123  H135  S    
C7    C119  S    
Cr8   O28   S    
C62   H58   S    
C62   C66   S    
C129  H147  S    
Cr2   O2    S    
C20   C28   S    
C18   H124  S    
C121  H129  S    
Cr12  O36   S    
C122  C123  S    
C43   C44   S    
C66   C82   S    
Cr9   O33   S    
C58   C101  S    
C105  O41   A    
C92   O4    A    
C107  O43   A    
C53   H38   S    
C116  H4    S    
C108  O44   A    
C56   H39   S    
C89   O1    A    
Cr5   O49   S    
C55   H40   S    
C91   O3    A    
Cr1   O45   S    
Cr5   O5    S    
Cr2   O42   S    
C3    C26   S    
C84   C88   S    
C31   C91   S    
C127  H143  S    
C129  H149  S    
C53   H45   S    
Cr12  O12   S    
C13   H117  S    
Cr10  O34   S    
C17   C25   S    
C19   C35   S    
C76   C96   S    
C1    O21   A    
C32   C92   S    
C75   H83   S    
Cr3   O19   S    
C131  H152  S    
C95   H95   S    
O55   C127  S    
C61   C65   S    
C12   H108  S    
C78   C99   S    
C45   O29   A    
C75   C79   S    
Cr5   O29   S    
C103  O11   A    
C22   C38   S    
C67   C83   S    
C80   C97   S    
C11   H111  S    
C69   C77   S    
C111  C112  S    
C9    H109  S    
C71   C79   S    
C4    C25   S    
Cr4   O20   S    
C7    C8    S    
C22   O54   S    
Cr10  O38   S    
Cr4   O44   S    
C96   H96   S    
C73   H77   S    
C35   H23   S    
C43   H27   S    
C64   C68   S    
C100  O52   A    
C33   H21   S    
C49   C57   S    
Cr11  O11   S    
Cr9   O37   S    
C124  H137  S    
C38   H14   S    
C52   C60   S    
C19   H121  S    
C61   C77   S    
C12   H112  S    
C93   H93   S    
C36   H126  S    
C47   O35   A    
C110  C114  S    
C48   O36   A    
C43   C59   S    
C62   H54   S    
C76   H80   S    
C10   H106  S    
Cr6   O30   S    
Cr1   O21   S    
C127  C128  S    
Cr2   O18   S    
C110  H42   S    
Cr12  O20   S    
C81   C105  S    
C30   C34   S    
C10   C14   S    
C101  O9    A    
C95   H91   S    
C116  C120  S    
C123  H134  S    
C7    C116  S    
C69   H97   S    
C126  H141  S    
C33   H127  S    
C61   H53   S    
C114  H2    S    
C34   H128  S    
C64   H56   S    
C66   H66   S    
C113  C117  S    
C112  H44   S    
C63   H55   S    
Cr6   O26   S    
C9    H105  S    
Cr4   O48   S    
C112  C116  S    
C69   C85   S    
C85   H75   S    
C72   H70   S    
C56   H48   S    
C45   C117  S    
C21   C25   S    
C71   H99   S    
Cr12  O40   S    
C55   H47   S    
C62   C78   S    
C76   C80   S    
C125  H138  S    
C42   H30   S    
C15   C31   S    
C16   C32   S    
C97   O45   A    
C105  O13   A    
C106  O42   A    
C72   C80   S    
C130  C131  S    
C115  H3    S    
C4    O24   A    
C20   H122  S    
C82   C106  S    
C90   O2    A    
C126  H142  S    
Cr6   O50   S    
Cr8   O32   S    
C128  C129  S    
C94   H90   S    
Cr6   O6    S    
C46   O34   A    
Cr7   O19   S    
C66   H62   S    
Cr8   O20   S    
C81   C85   S    
C83   C87   S    
C21   O53   S    
C41   H29   S    
C41   C42   S    
C74   C94   S    
Cr9   O13   S    
C18   C26   S    
C30   C90   S    
Cr11  O39   S    
C20   H18   S    
C1    O25   A    
C132  H154  S    
C9    C25   S    
C2    O22   A    
C3    O27   A    
C75   H79   S    
C86   H102  S    
C37   H9    S    
C12   C28   S    
C13   C29   S    
C67   H67   S    
C129  H148  S    
C98   O46   A    
C121  H130  S    
C92   O40   A    
C46   C118  S    
C122  H132  S    
C73   C77   S    
C64   H60   S    
C6    H86   S    
C51   H35   S    
C24   O56   S    
C50   H34   S    
C1    C28   S    
C2    C27   S    
Cr10  O14   S    
C72   H100  S    
Cr11  O19   S    
C52   C55   S    
C121  C122  S    
C64   C80   S    
C73   H81   S    
C42   H26   S    
C17   C33   S    
C125  C126  S    
C110  C117  S    
C65   H61   S    
C34   H22   S    
C40   H16   S    
C68   C84   S    
C24   C28   S    
C127  H144  S    
C51   H52   S    
C86   H76   S    
C130  H150  S    
C53   C57   S    
C131  C132  S    
C23   O55   S    
C82   C86   S    
C56   C60   S    
C115  C119  S    
C50   C58   S    
C126  H140  S    
C104  O12   A    
C49   H33   S    
C48   O32   A    
Cr7   O27   S    
C76   H84   S    
C65   C81   S    
C128  H145  S    
C91   O39   A    
Cr8   O8    S    
C68   H64   S    
C131  H153  S    
Cr2   O22   S    
C71   C87   S    
C15   H115  S    
C44   H28   S    
C31   C35   S    
C32   C36   S    
C132  H156  S    
C36   H24   S    
C101  O5    A    
C102  O10   A    
C108  O16   A    
C112  C119  S    
C14   H118  S    
C22   H6    S    
C41   C57   S    
C109  C110  S    
O53   C121  S    
Cr5   O17   S    
C44   C60   S    
C63   H59   S    
C84   C108  S    
C124  H136  S    
C94   H94   S    
C20   C36   S    
C54   H46   S    
C21   C37   S    
C22   C26   S    
C29   C37   S    
C44   H32   S    
C43   H31   S    
C97   O49   A    
C5    C114  S    
C70   C78   S    
C79   C98   S    
C99   O51   A    
C10   H110  S    
C52   H51   S    
C63   C79   S    
C4    O28   A    
C74   H78   S    
C111  H43   S    
C23   H7    S    
C46   O30   A    
C11   H107  S    
C49   C54   S    
Cr3   O47   S    
C51   C56   S    
C84   C96   S    
C8    C115  S    
Cr1   O1    S    
Cr3   O3    S    
C96   H92   S    
Cr9   O17   S    
C11   C27   S    
C19   C27   S    
C74   C78   S    
C109  C113  S    
C2    O26   A    
C7    H87   S    
C10   C26   S    
C47   C119  S    
C38   H10   S    
C14   C30   S    
C67   H63   S    
C72   C88   S    
C88   H104  S    
C63   C67   S    
C125  H139  S    
Cr7   O31   S    
Cr1   O41   S    
C21   H5    S    
C5    C117  S    
C111  C120  S    
Cr10  O18   S    
C124  C125  S    
Cr3   O43   S    
C70   H98   S    
C6    C113  S    
Cr11  O15   S    
C8    H88   S    
C130  H151  S    
C81   C93   S    
C83   C95   S    
Cr11  O35   S    
C18   C34   S    
C114  C118  S    
C65   H65   S    
C128  H146  S    
C39   H11   S    
C69   H71   S    
C23   C27   S    
C40   H12   S    
C41   H25   S    
C50   H49   S    
C51   C59   S    
C70   C86   S    
C8    C120  S    
Cr2   O46   S    
C54   C58   S    
C71   H69   S    
C17   H123  S    
C45   O33   A    
C104  O8    A    
C88   H74   S    
C111  C115  S    
Cr7   O51   S    
Cr8   O52   S    
C68   H68   S    
C123  H133  S    
Cr3   O23   S    
C52   H36   S    
C106  O14   A    
C90   O38   A    
O56   C130  S    
C15   H119  S    
C23   C39   S    
C3    O23   A    
C24   C40   S    
C31   C39   S    
C32   C40   S    
C122  H131  S    
Cr9   O9    S    
C49   H50   S    
C100  O48   A    
C102  O6    A    
C39   H15   S    
C93   H89   S    
C37   H13   S    
C6    C118  S    
C14   H114  S    
