data_str_m2_o16_o17_f0_pcu.sym.16
_audit_creation_date              2012-10-26T21:02:33-0400
_audit_creation_method            fapswitch 2.2
_symmetry_space_group_name_H-M    P1
_symmetry_Int_Tables_number       1
_space_group_crystal_system       triclinic
_cell_length_a                    12.470342
_cell_length_b                    13.213083
_cell_length_c                    15.011078
_cell_angle_alpha                 75.912879
_cell_angle_beta                  100.882004
_cell_angle_gamma                 117.22051
_cell_volume                      2124.71340332

loop_
_atom_site_label
_atom_site_type_symbol
_atom_type_description
_atom_site_fract_x
_atom_site_fract_y
_atom_site_fract_z
_atom_type_partial_charge
C1    C     C_R   0.854939 0.286296 0.509716 0.516751
C2    C     C_R   0.908390 0.390807 0.821572 -0.013372
C3    C     C_R   0.996649 0.486340 0.769328 -0.030695
C4    C     C_R   0.997668 0.495493 0.671020 0.517035
C5    C     C_R   0.099969 0.562569 0.814031 -0.151222
C6    C     C_R   0.287553 0.021176 0.366782 -0.139904
C7    C     C_R   0.227780 0.837923 0.471905 0.027548
C8    C     C_R   0.808111 0.081031 0.577178 -0.126380
C9    C     C_R   0.725697 0.965585 0.597604 -0.127031
C10   C     C_R   0.604097 0.930991 0.565285 -0.100558
C11   C     C_R   0.562686 0.011530 0.510298 0.027804
C12   C     C_R   0.116207 0.564477 0.094459 0.025998
C13   C     C_R   0.650456 0.124207 0.477473 0.018538
C14   C     C_R   0.437897 0.981123 0.480916 0.048603
C15   C     C_R   0.407297 0.054509 0.404970 0.038959
C16   C     C_R   0.144925 0.713832 0.488591 0.533828
C17   C     C_R   0.496563 0.159549 0.366395 -0.141532
C18   C     C_R   0.616075 0.194525 0.402504 -0.118096
C19   C     C_R   0.341613 0.880607 0.523064 0.031652
C20   C     C_R   0.199583 0.911967 0.397795 -0.164522
C21   C     C_R   0.771430 0.162035 0.518521 -0.008525
C22   C     C_R   0.337363 0.314824 0.642367 -0.133663
C23   C     C_R   0.807891 0.327019 0.057094 -0.143934
C24   C     C_R   0.750796 0.641768 0.369705 0.172145
C25   C     C_R   0.638922 0.638012 0.327466 -0.113654
C26   C     C_R   0.535845 0.571382 0.372673 -0.102817
C27   C     C_R   0.543330 0.513866 0.463269 0.017798
C28   C     C_R   0.003603 0.504649 0.328526 0.539546
C29   C     C_R   0.650798 0.497689 0.494943 0.150624
C30   C     C_R   0.443652 0.463823 0.519352 -0.008878
C31   C     C_R   0.441539 0.376281 0.595498 0.012804
C32   C     C_R   0.544121 0.352995 0.623949 -0.020748
C33   C     C_R   0.646584 0.414709 0.574275 -0.083434
C34   C     C_R   0.806763 0.319245 0.965829 -0.099225
C35   C     C_R   0.347382 0.499468 0.504288 0.136835
C36   C     C_R   0.242815 0.347637 0.623672 0.155630
C37   C     C_R   0.106745 0.585837 0.180213 -0.010245
C38   C     C_R   0.006610 0.504958 0.231207 0.013812
C39   C     C_R   0.909407 0.417789 0.190601 -0.141867
C40   C     C_R   0.908945 0.409437 0.099739 0.007808
C41   C     C_R   0.011386 0.483731 0.051039 0.031956
C42   C     C_3   0.188040 0.704623 0.205529 -0.280665
C43   C     C_3   0.118518 0.765006 0.224184 -0.446236
C44   C     C_3   0.348668 0.835710 0.626723 -0.292855
C45   C     C_R   0.906783 0.394472 0.914948 0.045361
C46   C     C_3   0.255923 0.847173 0.672598 -0.449809
C47   C     C_3   0.144662 0.282445 0.689911 -0.231051
C48   C     C_3   0.190724 0.316318 0.785180 -0.435188
C49   C     C_3   0.553273 0.269725 0.711365 -0.281701
C50   C     C_3   0.530987 0.154559 0.689283 -0.416017
C51   C     C_2   0.363762 0.612145 0.447531 0.246766
C52   C     C_3   0.866054 0.739410 0.334020 -0.246909
C53   C     C_3   0.853595 0.826037 0.248687 -0.494347
C54   C     C_2   0.835452 0.283232 0.782128 0.171877
C55   C     C_3   0.350909 0.660544 0.100250 -0.282771
C56   C     C_R   0.008545 0.478133 0.958167 0.035113
C57   C     C_3   0.435937 0.787111 0.066077 -0.442444
C58   C     C_R   0.108543 0.555906 0.908551 -0.011174
C59   C     C_R   0.217266 0.622679 0.954443 -0.118827
C60   C     C_R   0.225120 0.621548 0.048833 0.013382
Cu1   Cu    Cu3+1 0.098270 0.475420 0.521130 0.909574
Cu2   Cu    Cu3+1 0.901730 0.524580 0.478870 0.890407
H1    H     H_    0.473915 0.215108 0.307713 0.105416
H2    H     H_    0.629967 0.689388 0.260951 0.106956
H3    H     H_    0.721110 0.393841 0.599232 0.174175
H4    H     H_    0.728794 0.269339 0.094062 0.108381
H5    H     H_    0.724994 0.257525 0.934600 0.158131
H6    H     H_    0.175887 0.624276 0.775251 0.114750
H7    H     H_    0.297730 0.670676 0.917427 0.110396
H8    H     H_    0.111005 0.884408 0.361016 0.108563
H9    H     H_    0.033752 0.747255 0.177635 0.157593
H10   H     H_    0.098926 0.734921 0.296841 0.154103
H11   H     H_    0.175275 0.859986 0.214135 0.138459
H12   H     H_    0.263475 0.076498 0.308758 0.109701
H13   H     H_    0.253710 0.699586 0.264585 0.134013
H14   H     H_    0.240322 0.764047 0.147506 0.164770
H15   H     H_    0.261163 0.935751 0.650915 0.152545
H16   H     H_    0.162598 0.783894 0.654066 0.163093
H17   H     H_    0.274942 0.830972 0.748733 0.130526
H18   H     H_    0.334400 0.744138 0.641125 0.172756
H19   H     H_    0.437597 0.887095 0.661350 0.138656
H20   H     H_    0.226071 0.411306 0.779703 0.176386
H21   H     H_    0.115315 0.272513 0.830500 0.158117
H22   H     H_    0.263814 0.289796 0.817715 0.130339
H23   H     H_    0.900273 0.107094 0.608298 0.120739
H24   H     H_    0.062309 0.294117 0.667899 0.210260
H25   H     H_    0.115155 0.187905 0.696974 0.098509
H26   H     H_    0.440750 0.116252 0.650862 0.151762
H27   H     H_    0.601449 0.167279 0.646789 0.165058
H28   H     H_    0.534117 0.093594 0.754204 0.166774
H29   H     H_    0.643930 0.309594 0.747697 0.147037
H30   H     H_    0.492992 0.254956 0.763221 0.132510
H31   H     H_    0.292421 0.618664 0.397880 0.135320
H32   H     H_    0.808882 0.782073 0.188482 0.148512
H33   H     H_    0.802001 0.869618 0.262375 0.164185
H34   H     H_    0.543642 0.840264 0.582199 0.161479
H35   H     H_    0.945049 0.893529 0.231197 0.139443
H36   H     H_    0.914332 0.789262 0.390382 0.166211
H37   H     H_    0.919921 0.702713 0.316370 0.187639
H38   H     H_    0.822467 0.286978 0.708148 0.101899
H39   H     H_    0.466085 0.796782 0.998239 0.147544
H40   H     H_    0.391855 0.845311 0.058730 0.148138
H41   H     H_    0.517611 0.815155 0.115768 0.143628
H42   H     H_    0.347791 0.645151 0.175780 0.136775
H43   H     H_    0.391990 0.605634 0.090054 0.142235
H44   H     H_    0.755497 0.903058 0.640946 0.126046
H45   H     H_    0.681834 0.274695 0.367469 0.147059
H46   H     H_    0.326646 0.239466 0.694719 0.101415
H47   H     H_    0.832925 0.357424 0.229708 0.104800
H48   H     H_    0.451015 0.567585 0.336228 0.096148
N1    N     N_R   0.246280 0.438190 0.553160 -0.250123
N2    N     N_R   0.754320 0.561190 0.447410 -0.235702
O1    O     O_R   0.972510 0.318130 0.526570 -0.516207
O2    O     O_2   0.794662 0.188233 0.831571 -0.535383
O3    O     O_R   0.806530 0.359650 0.490890 -0.523679
O4    O     O_R   0.082980 0.479210 0.647590 -0.513030
O5    O     O_R   0.917000 0.520730 0.611900 -0.514547
O6    O     O_R   0.193470 0.640350 0.509110 -0.498641
O7    O     O_R   0.027490 0.681870 0.473430 -0.523251
O8    O     O_R   0.083000 0.479270 0.388100 -0.514819
O9    O     O_R   0.917020 0.520790 0.352410 -0.517030
O10   O     O_2   0.457062 0.699160 0.457293 -0.544396

loop_
_geom_bond_atom_site_label_1
_geom_bond_atom_site_label_2
_ccdc_geom_bond_type
C24   C52   S    
C1    C21   S    
C43   H10   S    
C53   H33   S    
C29   N2    A    
C24   N2    A    
C54   H38   S    
C33   H3    S    
C19   C44   S    
C57   H40   S    
C42   H13   S    
C37   C38   A    
C13   C18   A    
C55   H43   S    
C23   H4    S    
C30   C31   A    
C11   C14   A    
C27   C29   A    
C57   H39   S    
C23   C40   A    
C29   C33   A    
C12   C37   A    
C36   C47   S    
C8    H23   S    
C37   C42   S    
C18   H45   S    
Cu2   O5    S    
C6    C15   A    
C43   H11   S    
C50   H28   S    
C46   H17   S    
C31   C32   A    
C45   C56   A    
C56   C58   A    
C8    C9    A    
C6    H12   S    
C28   C38   S    
C9    C10   A    
C26   H48   S    
C50   H26   S    
C53   H32   S    
C59   C60   A    
C55   C60   S    
Cu1   O8    S    
C20   H8    S    
C1    O1    A    
C49   H29   S    
C5    H6    S    
C44   C46   S    
C17   C18   A    
C2    C45   A    
C57   H41   S    
C22   C31   A    
C47   H24   S    
C44   H18   S    
C24   C25   A    
C44   H19   S    
C28   O8    A    
C16   O7    A    
C39   C40   A    
C46   H16   S    
C28   O9    A    
C53   H35   S    
C25   C26   A    
C55   H42   S    
C48   H22   S    
C25   H2    S    
C47   H25   S    
C41   C56   A    
C12   C41   A    
C16   O6    A    
C50   H27   S    
C47   C48   S    
C10   H34   S    
C23   C34   A    
C36   N1    A    
C8    C21   A    
C26   C27   A    
C35   C51   S    
C13   C21   A    
C34   C45   A    
Cu2   O7    S    
C59   H7    S    
C5    C58   A    
C40   C41   A    
C51   H31   S    
C7    C20   A    
C7    C19   A    
C55   C57   S    
C2    C54   S    
C4    O5    A    
C58   C59   A    
C42   C43   S    
C49   H30   S    
C3    C4    S    
Cu1   N1    S    
C35   N1    A    
C52   C53   S    
C15   C17   A    
C7    C16   S    
C43   H9    S    
Cu1   O6    S    
Cu1   O4    S    
C14   C19   A    
C4    O4    A    
C22   C36   A    
C3    C5    A    
C34   H5    S    
C46   H15   S    
C30   C35   A    
C52   H37   S    
C42   H14   S    
C48   H21   S    
C32   C33   A    
C2    C3    A    
C9    H44   S    
Cu2   O3    S    
C17   H1    S    
Cu1   O1    S    
C11   C13   A    
C38   C39   A    
C6    C20   A    
C22   H46   S    
C54   O2    D    
C52   H36   S    
C48   H20   S    
Cu1   Cu2   S    
C32   C49   S    
C10   C11   A    
C12   C60   A    
C39   H47   S    
Cu2   N2    S    
C49   C50   S    
C51   O10   D    
C14   C15   A    
C1    O3    A    
Cu2   O9    S    
C27   C30   A    
