data_str_m3_o10_o15_f0_pcu.sym.41
_audit_creation_date              2012-12-10T16:50:58-0500
_audit_creation_method            fapswitch 2.2
_symmetry_space_group_name_H-M    P1
_symmetry_Int_Tables_number       1
_space_group_crystal_system       triclinic
_cell_length_a                    8.054803
_cell_length_b                    8.52657
_cell_length_c                    10.934329
_cell_angle_alpha                 91.921711
_cell_angle_beta                  86.673941
_cell_angle_gamma                 93.1649
_cell_volume                      748.212916591

loop_
_atom_site_label
_atom_site_type_symbol
_atom_type_description
_atom_site_fract_x
_atom_site_fract_y
_atom_site_fract_z
_atom_type_partial_charge
C1    C     C_R   0.544310 0.793126 0.496872 0.970174
C2    C     C_R   0.937397 0.410197 0.036316 -0.112401
C3    C     C_R   0.048939 0.546144 0.046065 -0.099719
C4    C     C_R   0.927391 0.435950 0.908708 -0.233499
C5    C     C_R   0.191663 0.559544 0.117388 -0.007840
C6    C     C_R   0.797355 0.525743 0.874730 0.001818
C7    C     C_R   0.344244 0.498118 0.066999 -0.025568
C8    C     C_R   0.646143 0.487779 0.933625 0.071967
C9    C     C_R   0.353167 0.455169 0.942034 0.048782
C10   C     C_R   0.641317 0.455880 0.058024 0.063388
C11   C     C_R   0.492175 0.483444 0.128878 -0.201020
C12   C     C_R   0.455674 0.206848 0.503008 0.929859
C13   C     C_R   0.501380 0.476831 0.872200 -0.158904
C14   C     C_2   0.200951 0.700279 0.202353 0.443220
C15   C     C_2   0.821098 0.687134 0.822366 0.420895
C16   C     C_2   0.567028 0.957270 0.495108 -0.346997
C17   C     C_2   0.432924 0.042676 0.504534 -0.370619
C18   C     C_R   0.501396 0.493340 0.738591 0.898866
C19   C     C_R   0.496639 0.495858 0.261500 0.837160
C20   C     C_R   0.209556 0.419266 0.886316 -0.161429
C21   C     C_R   0.786770 0.401480 0.104518 -0.139389
C22   C     C_R   0.078427 0.511914 0.920120 -0.173062
H1    H     H_    0.920299 0.325148 0.855959 0.173421
H2    H     H_    0.991230 0.625579 0.587359 0.179327
H3    H     H_    0.318580 0.766901 0.212014 0.059893
H4    H     H_    0.933552 0.724556 0.770607 0.029213
H5    H     H_    0.977045 0.650666 0.064113 0.190217
H6    H     H_    0.203237 0.334737 0.809746 0.168791
H7    H     H_    0.777931 0.322334 0.180456 0.164777
H8    H     H_    0.107676 0.619865 0.872326 0.161322
H9    H     H_    0.998383 0.303344 0.058972 0.162316
H10   H     H_    0.694200 0.007208 0.486111 0.190012
H11   H     H_    0.305748 0.992724 0.513479 0.193134
H12   H     H_    0.009196 0.377821 0.408714 0.190947
N1    N     N_2   0.950330 0.457950 0.466250 -0.160664
N2    N     N_2   0.049670 0.542050 0.533750 -0.166375
O1    O     O_R   0.389250 0.738570 0.508280 -0.608111
O2    O     O_2   0.712494 0.781638 0.837464 -0.591414
O3    O     O_R   0.610750 0.261430 0.491720 -0.621252
O4    O     O_R   0.678390 0.711630 0.486650 -0.599127
O5    O     O_R   0.321610 0.288370 0.513350 -0.635134
O6    O     O_R   0.355430 0.513480 0.694040 -0.634102
O7    O     O_R   0.644570 0.486520 0.305960 -0.606789
O8    O     O_R   0.644570 0.486540 0.672410 -0.631124
O9    O     O_R   0.355430 0.513460 0.327590 -0.624111
O10   O     O_2   0.077939 0.741570 0.263070 -0.574493
Zn1   Zn    Zn3+2 0.306940 0.517990 0.514440 0.960005
Zn2   Zn    Zn3+2 0.693060 0.482010 0.485560 0.973641

loop_
_geom_bond_atom_site_label_1
_geom_bond_atom_site_label_2
_ccdc_geom_bond_type
C12   C17   S    
C2    C4    A    
C19   O9    A    
C15   O2    D    
C10   C21   A    
C8    C13   A    
C22   H8    S    
C18   O8    A    
O1    Zn1   S    
C4    C22   A    
O7    Zn2   S    
C2    H9    S    
C9    C20   A    
N1    N2    D    
C1    O1    A    
C2    C21   A    
C3    H5    S    
C2    C3    A    
O5    Zn1   S    
C14   O10   D    
C1    C16   S    
H2    N2    S    
C7    C11   A    
C11   C19   S    
C5    C14   S    
C12   O5    A    
C17   H11   S    
C13   C18   S    
C12   O3    A    
N1    Zn2   S    
C8    C10   A    
C20   C22   A    
O6    Zn1   S    
C18   O6    A    
C14   H3    S    
C16   H10   S    
C10   C11   A    
C7    C9    A    
N2    Zn1   S    
C4    C6    A    
H12   N1    S    
O9    Zn1   S    
C5    C7    A    
C4    H1    S    
C9    C13   A    
O4    Zn2   S    
C16   C17   D    
C3    C22   A    
C6    C8    A    
C20   H6    S    
C1    O4    A    
C3    C5    A    
C6    C15   S    
C21   H7    S    
O8    Zn2   S    
C19   O7    A    
O3    Zn2   S    
C15   H4    S    
