data_str_m9_o17_o17_f0_sra.sym.48
_audit_creation_date              2012-12-11T15:17:39-0500
_audit_creation_method            fapswitch 2.2
_symmetry_space_group_name_H-M    P1
_symmetry_Int_Tables_number       1
_space_group_crystal_system       triclinic
_cell_length_a                    6.957061
_cell_length_b                    18.59162
_cell_length_c                    23.880482
_cell_angle_alpha                 90.004627
_cell_angle_beta                  90.024641
_cell_angle_gamma                 90.054872
_cell_volume                      3088.7722932

loop_
_atom_site_label
_atom_site_type_symbol
_atom_type_description
_atom_site_fract_x
_atom_site_fract_y
_atom_site_fract_z
_atom_type_partial_charge
O1    O     O_R   0.620180 0.810610 0.187990 -0.538469
O2    O     O_R   0.379820 0.189390 0.812010 -0.538469
O3    O     O_R   0.379820 0.189390 0.687990 -0.538538
O4    O     O_R   0.620180 0.810610 0.312010 -0.538538
O5    O     O_R   0.120180 0.689390 0.312010 -0.535961
O6    O     O_R   0.879820 0.310610 0.687990 -0.535961
O7    O     O_R   0.879820 0.310610 0.812010 -0.535937
O8    O     O_R   0.120180 0.689390 0.187990 -0.535937
O9    O     O_R   0.290420 0.818570 0.311590 -0.533760
O10   O     O_R   0.709580 0.181430 0.688410 -0.533760
O11   O     O_R   0.709580 0.181430 0.811590 -0.533768
O12   O     O_R   0.290420 0.818570 0.188410 -0.533768
O13   O     O_R   0.790420 0.681430 0.188410 -0.536474
O14   O     O_R   0.209580 0.318570 0.811590 -0.536474
O15   O     O_R   0.209580 0.318570 0.688410 -0.536416
O16   O     O_R   0.790420 0.681430 0.311590 -0.536416
H1    H     H_    0.963301 0.604457 0.626346 0.200369
H2    H     H_    0.036699 0.395543 0.373654 0.200369
H3    H     H_    0.036471 0.395522 0.126334 0.200373
H4    H     H_    0.963529 0.604478 0.873666 0.200373
H5    H     H_    0.515202 0.894170 0.873762 0.200209
H6    H     H_    0.484798 0.105830 0.126238 0.200209
H7    H     H_    0.485015 0.105864 0.373799 0.200205
H8    H     H_    0.514985 0.894136 0.626201 0.200205
C1    C     C_R   0.458545 0.833553 0.332956 0.790300
C2    C     C_R   0.541455 0.166447 0.667044 0.790300
C3    C     C_R   0.541547 0.166475 0.832978 0.790201
C4    C     C_R   0.458453 0.833524 0.167022 0.790201
C5    C     C_R   0.958369 0.666353 0.167095 0.790714
C6    C     C_R   0.041631 0.333647 0.832905 0.790713
C7    C     C_R   0.041544 0.333630 0.667086 0.790677
C8    C     C_R   0.958456 0.666370 0.332914 0.790676
H9    H     H_    0.941192 0.683209 0.545421 0.135000
H10   H     H_    0.058808 0.316791 0.454579 0.135000
H11   H     H_    0.058771 0.316786 0.045401 0.134996
H12   H     H_    0.941229 0.683214 0.954599 0.134996
H13   H     H_    0.493784 0.815212 0.954631 0.134843
H14   H     H_    0.506216 0.184788 0.045369 0.134843
H15   H     H_    0.506254 0.184800 0.454701 0.134836
H16   H     H_    0.493746 0.815200 0.545299 0.134836
H17   H     H_    0.060571 0.298231 0.556757 0.127069
H18   H     H_    0.939429 0.701769 0.443243 0.127069
H19   H     H_    0.939317 0.701759 0.056778 0.127063
H20   H     H_    0.060683 0.298241 0.943222 0.127063
H21   H     H_    0.524365 0.202935 0.943277 0.126932
H22   H     H_    0.475635 0.797065 0.056723 0.126933
H23   H     H_    0.475733 0.797082 0.443209 0.126911
H24   H     H_    0.524267 0.202918 0.556791 0.126911
O17   O     O_3   0.453640 0.707610 0.250000 -0.371945
O18   O     O_3   0.546360 0.292390 0.750000 -0.371945
O19   O     O_3   0.953640 0.792390 0.250000 -0.372698
O20   O     O_3   0.046360 0.207610 0.750000 -0.372698
V1    V     V_3+5 0.178800 0.757860 0.250000 1.572761
V2    V     V_3+5 0.821200 0.242140 0.750000 1.572761
V3    V     V_3+5 0.678800 0.742140 0.250000 1.563733
V4    V     V_3+5 0.321200 0.257860 0.750000 1.563733
C9    C     C_R   0.043184 0.355722 0.562844 -0.293921
C10   C     C_R   0.956816 0.644278 0.437155 -0.293922
C11   C     C_R   0.956662 0.644266 0.062857 -0.293929
C12   C     C_R   0.043338 0.355734 0.937143 -0.293929
C13   C     C_R   0.522438 0.145018 0.937223 -0.293316
C14   C     C_R   0.477562 0.854982 0.062777 -0.293316
C15   C     C_R   0.477707 0.855001 0.437176 -0.293338
C16   C     C_R   0.522293 0.144999 0.562824 -0.293337
C17   C     C_R   0.032461 0.383356 0.617732 -0.147041
C18   C     C_R   0.967539 0.616644 0.382268 -0.147042
C19   C     C_R   0.967288 0.616622 0.117740 -0.147047
C20   C     C_R   0.032712 0.383378 0.882260 -0.147047
C21   C     C_R   0.532263 0.116846 0.882394 -0.147897
C22   C     C_R   0.467737 0.883154 0.117606 -0.147897
C23   C     C_R   0.467983 0.883186 0.382360 -0.147872
C24   C     C_R   0.532017 0.116814 0.617640 -0.147872
C25   C     C_R   0.008855 0.458324 0.624717 0.352836
C26   C     C_R   0.991144 0.541676 0.375283 0.352836
C27   C     C_R   0.990940 0.541654 0.124718 0.352825
C28   C     C_R   0.009060 0.458346 0.875281 0.352825
C29   C     C_R   0.529422 0.041310 0.875387 0.352006
C30   C     C_R   0.470578 0.958690 0.124613 0.352006
C31   C     C_R   0.470788 0.958725 0.375372 0.351997
C32   C     C_R   0.529212 0.041274 0.624628 0.351997
C33   C     C_R   0.996102 0.505270 0.578229 0.017218
C34   C     C_R   0.003898 0.494730 0.421771 0.017218
C35   C     C_R   0.003749 0.494718 0.078226 0.017228
C36   C     C_R   0.996251 0.505282 0.921774 0.017228
C37   C     C_R   0.515064 0.994270 0.921816 0.017431
C38   C     C_R   0.484936 0.005730 0.078184 0.017431
C39   C     C_R   0.485080 0.005750 0.421819 0.017432
C40   C     C_R   0.514920 0.994250 0.578181 0.017432
C41   C     C_R   0.006707 0.476758 0.523550 0.019542
C42   C     C_R   0.993293 0.523242 0.476450 0.019542
C43   C     C_R   0.993239 0.523238 0.023551 0.019538
C44   C     C_R   0.006761 0.476762 0.976449 0.019538
C45   C     C_R   0.506348 0.023296 0.976473 0.019435
C46   C     C_R   0.493652 0.976704 0.023527 0.019435
C47   C     C_R   0.493702 0.976710 0.476465 0.019440
C48   C     C_R   0.506298 0.023290 0.523535 0.019440
C49   C     C_R   0.030389 0.401824 0.515922 0.116926
C50   C     C_R   0.969611 0.598175 0.484078 0.116926
C51   C     C_R   0.969551 0.598171 0.015931 0.116925
C52   C     C_R   0.030449 0.401829 0.984069 0.116926
C53   C     C_R   0.510710 0.098834 0.984127 0.117305
C54   C     C_R   0.489290 0.901166 0.015873 0.117305
C55   C     C_R   0.489344 0.901172 0.484092 0.117300
C56   C     C_R   0.510656 0.098828 0.515908 0.117300
C57   C     C_R   0.972291 0.580216 0.585088 -0.102919
C58   C     C_R   0.027709 0.419783 0.414912 -0.102919
C59   C     C_R   0.027570 0.419771 0.085078 -0.102917
C60   C     C_R   0.972430 0.580229 0.914922 -0.102917
C61   C     C_R   0.509804 0.918742 0.914968 -0.102300
C62   C     C_R   0.490196 0.081258 0.085032 -0.102300
C63   C     C_R   0.490329 0.081278 0.414997 -0.102303
C64   C     C_R   0.509671 0.918722 0.585003 -0.102303
C65   C     C_R   0.959346 0.625902 0.538639 -0.185720
C66   C     C_R   0.040653 0.374098 0.461361 -0.185720
C67   C     C_R   0.040615 0.374093 0.038625 -0.185736
C68   C     C_R   0.959384 0.625907 0.961375 -0.185736
C69   C     C_R   0.497192 0.872952 0.961372 -0.186013
C70   C     C_R   0.502807 0.127048 0.038628 -0.186013
C71   C     C_R   0.502846 0.127057 0.461419 -0.186021
C72   C     C_R   0.497154 0.872943 0.538581 -0.186021
Cl1   Cl    Cl    0.996239 0.493703 0.690768 -0.555712
Cl2   Cl    Cl    0.003761 0.506297 0.309232 -0.555712
Cl3   Cl    Cl    0.003799 0.506273 0.190761 -0.555730
Cl4   Cl    Cl    0.996201 0.493727 0.809239 -0.555730
Cl5   Cl    Cl    0.541928 0.005215 0.809321 -0.554443
Cl6   Cl    Cl    0.458072 0.994785 0.190679 -0.554443
Cl7   Cl    Cl    0.458041 0.994855 0.309324 -0.554436
Cl8   Cl    Cl    0.541959 0.005145 0.690676 -0.554436

loop_
_geom_bond_atom_site_label_1
_geom_bond_atom_site_label_2
_ccdc_geom_bond_type
O14   V4    S    
C40   C48   A    
C45   C46   A    
C14   C54   A    
C22   C30   A    
C11   C51   A    
C49   C66   A    
C21   C29   A    
C47   C48   A    
H8    C64   S    
C60   C68   A    
C27   C35   A    
C62   C70   A    
C31   C39   A    
O4    C1    A    
C61   C69   A    
O18   V2    S    
H22   C14   S    
C27   Cl3   S    
C53   C70   A    
C57   C65   A    
C38   C62   A    
C26   C34   A    
C37   C61   A    
H23   C15   S    
H15   C71   S    
H24   C16   S    
C39   C63   A    
C13   C21   A    
C18   C26   A    
C17   C25   A    
C14   C22   A    
C63   C71   A    
O16   C8    A    
H18   C10   S    
C38   C46   A    
C11   C19   A    
C5    C19   S    
C37   C45   A    
C10   C18   A    
C55   C72   A    
C47   C55   A    
H6    C62   S    
C10   C50   A    
O1    C4    A    
H11   C67   S    
O2    C3    A    
C1    C23   S    
C4    C22   S    
O12   V1    S    
C3    C21   S    
H19   C11   S    
C56   C71   A    
C33   C41   A    
C30   C38   A    
C34   C58   A    
O6    C7    A    
C29   C37   A    
O7    C6    A    
C28   C36   A    
C52   C67   A    
O6    V2    S    
C25   C33   A    
O20   V2    S    
C33   C57   A    
O9    C1    A    
C28   Cl4   S    
H7    C63   S    
C15   C55   A    
C45   C53   A    
C51   C68   A    
C64   C72   A    
C30   Cl6   S    
C50   C65   A    
C32   Cl8   S    
O17   V3    S    
O18   V4    S    
C23   C31   A    
C41   C49   A    
O19   V1    S    
C40   C64   A    
C13   C53   A    
H2    C58   S    
O9    V1    S    
H1    C57   S    
O3    V4    S    
O11   C3    A    
C9    C49   A    
C2    C24   S    
O11   V2    S    
C59   C67   A    
C54   C69   A    
C26   Cl2   S    
C58   C66   A    
C25   Cl1   S    
C48   C56   A    
O4    V3    S    
C19   C27   A    
O8    C5    A    
H12   C68   S    
C43   C44   A    
C29   Cl5   S    
C44   C52   A    
C8    C18   S    
O13   C5    A    
C7    C17   S    
C31   Cl7   S    
C39   C47   A    
H16   C72   S    
O3    C2    A    
C16   C56   A    
C15   C23   A    
C12   C52   A    
O8    V1    S    
H5    C61   S    
O15   C7    A    
H10   C66   S    
C35   C43   A    
H9    C65   S    
C34   C42   A    
C12   C20   A    
O15   V4    S    
O5    C8    A    
O5    V1    S    
O16   V3    S    
O14   C6    A    
C32   C40   A    
O2    V4    S    
C20   C28   A    
O10   C2    A    
H20   C12   S    
O17   V1    S    
C9    C17   A    
H21   C13   S    
C36   C60   A    
C35   C59   A    
O19   V3    S    
C16   C24   A    
O1    V3    S    
O10   V2    S    
H17   C9    S    
H14   C70   S    
H13   C69   S    
O12   C4    A    
C24   C32   A    
C36   C44   A    
O7    V2    S    
C43   C51   A    
C41   C42   A    
C42   C50   A    
C6    C20   S    
O20   V4    S    
C46   C54   A    
H4    C60   S    
O13   V3    S    
H3    C59   S    
