data_str_m3_o4_o14_f0_pcu.sym.189
_audit_creation_date              2012-12-10T20:28:41-0500
_audit_creation_method            fapswitch 2.2
_symmetry_space_group_name_H-M    P1
_symmetry_Int_Tables_number       1
_space_group_crystal_system       triclinic
_cell_length_a                    10.653704
_cell_length_b                    10.681019
_cell_length_c                    9.902445
_cell_angle_alpha                 90.19693
_cell_angle_beta                  87.750662
_cell_angle_gamma                 88.970285
_cell_volume                      1125.7633927

loop_
_atom_site_label
_atom_site_type_symbol
_atom_type_description
_atom_site_fract_x
_atom_site_fract_y
_atom_site_fract_z
_atom_type_partial_charge
C1    C     C_R   0.515476 0.260780 0.498966 0.896807
C2    C     C_R   0.052813 0.611209 0.580158 -0.000982
C3    C     C_R   0.126247 0.513242 0.514517 -0.087268
C4    C     C_R   0.070744 0.417393 0.442657 -0.189544
C5    C     C_R   0.942975 0.414695 0.434720 -0.212422
C6    C     C_R   0.871260 0.512712 0.490126 -0.045685
C7    C     C_R   0.544112 0.064882 0.620388 0.012217
C8    C     C_R   0.551523 0.129720 0.498459 -0.209712
C9    C     C_R   0.582190 0.061947 0.377784 0.449249
C10   C     C_R   0.567157 0.932534 0.378438 -0.215754
C11   C     C_R   0.527887 0.872249 0.498324 -0.156833
C12   C     C_R   0.260132 0.511330 0.504033 0.912366
C13   C     C_R   0.527358 0.937901 0.619540 0.106172
C14   C     C_3   0.427870 0.946059 0.729801 0.299919
C15   C     C_3   0.452992 0.084151 0.736753 -0.542125
C16   C     C_R   0.457946 0.399080 0.073340 0.063815
C17   C     C_R   0.552137 0.594305 0.071129 -0.106151
C18   C     C_R   0.555032 0.593857 0.928069 0.491019
C19   C     C_R   0.456335 0.399112 0.931172 0.049713
C20   C     C_3   0.327421 0.342815 0.936068 0.143702
C21   C     C_3   0.330778 0.344261 0.089624 0.202202
C22   C     C_R   0.503066 0.740661 0.499694 0.922168
C23   C     C_R   0.739565 0.499190 0.497007 0.821565
C24   C     C_R   0.096074 0.704537 0.671181 0.317081
C25   C     C_R   0.019924 0.809464 0.704500 -0.129549
C26   C     C_R   0.900237 0.821892 0.656368 -0.174706
C27   C     C_R   0.851325 0.724770 0.583548 -0.179292
C28   C     C_R   0.924693 0.616759 0.550724 0.067658
H1    H     H_    0.126853 0.342595 0.394825 0.179990
H2    H     H_    0.449181 0.892122 0.822263 0.174995
H3    H     H_    0.370736 0.142738 0.709078 0.228646
H4    H     H_    0.500336 0.112309 0.829933 0.174910
H5    H     H_    0.593408 0.670889 0.124560 0.166734
H6    H     H_    0.323421 0.247674 0.893048 0.099004
H7    H     H_    0.260267 0.408094 0.140917 0.183269
H8    H     H_    0.050408 0.879286 0.774804 0.157455
H9    H     H_    0.842327 0.903359 0.682817 0.161944
H10   H     H_    0.755647 0.734615 0.552755 0.127315
H11   H     H_    0.899805 0.335992 0.386308 0.146796
H12   H     H_    0.581977 0.880721 0.284741 0.187578
N1    N     N_R   0.499160 0.499140 0.142800 -0.148288
N2    N     N_R   0.499160 0.499180 0.857150 -0.110443
O1    O     O_R   0.500020 0.316790 0.614690 -0.617605
O2    O     O_R   0.500000 0.316760 0.385350 -0.574093
O3    O     O_R   0.316770 0.500020 0.614690 -0.523514
O4    O     O_R   0.316760 0.499980 0.385350 -0.617996
O5    O     O_R   0.500000 0.683240 0.614650 -0.591775
O6    O     O_R   0.499980 0.683210 0.385310 -0.638624
O7    O     O_R   0.683240 0.500020 0.614650 -0.652386
O8    O     O_R   0.683230 0.499980 0.385310 -0.628204
Zn1   Zn    Zn3+2 0.500010 0.500020 0.653130 1.017455
Zn2   Zn    Zn3+2 0.499990 0.499980 0.346870 0.976187
O9    O     O_3   0.614748 0.691247 0.864383 -0.790379
H13   H     H_    0.651487 0.658690 0.778467 0.372364
O10   O     O_3   0.234994 0.423964 0.888846 -0.688855
H14   H     H_    0.154838 0.378274 0.897746 0.338854
O11   O     O_3   0.332958 0.223947 0.147373 -0.736786
H15   H     H_    0.401516 0.173313 0.101814 0.354932
Br1   Br    Br    0.230336 0.684441 0.792699 -0.423228
O12   O     O_3   0.619488 0.117805 0.257903 -0.757247
H16   H     H_    0.665077 0.194856 0.279780 0.334760
O13   O     O_3   0.308949 0.925448 0.679713 -0.727348
H17   H     H_    0.248212 0.957974 0.750371 0.337954

loop_
_geom_bond_atom_site_label_1
_geom_bond_atom_site_label_2
_ccdc_geom_bond_type
C22   O6    A    
O10   H14   S    
C26   H9    S    
C21   O11   S    
O13   H17   S    
C21   H7    S    
C27   H10   S    
C18   N2    A    
C1    C8    S    
C2    C28   A    
C9    C10   A    
C20   O10   S    
N1    Zn2   S    
O8    Zn2   S    
C4    H1    S    
C19   N2    A    
O6    Zn2   S    
N2    Zn1   S    
C9    O12   S    
C20   H6    S    
O2    Zn2   S    
C7    C15   S    
C17   C18   A    
C26   C27   A    
C15   H4    S    
O9    H13   S    
C24   C25   A    
C15   H3    S    
C4    C5    A    
C11   C13   A    
O1    Zn1   S    
O11   H15   S    
C16   C21   S    
C17   H5    S    
C14   H2    S    
C24   Br1   S    
C1    O2    A    
C6    C23   S    
C10   H12   S    
C22   O5    A    
C2    C3    A    
C5    H11   S    
C2    C24   A    
C5    C6    A    
C17   N1    A    
C23   O7    A    
C7    C8    A    
C10   C11   A    
O3    Zn1   S    
C25   H8    S    
C3    C4    A    
C14   O13   S    
O4    Zn2   S    
C7    C13   A    
C20   C21   S    
C12   O4    A    
C27   C28   A    
C14   C15   S    
C12   O3    A    
C23   O8    A    
O5    Zn1   S    
C3    C12   S    
C11   C22   S    
C18   O9    S    
C25   C26   A    
C13   C14   S    
C16   N1    A    
C1    O1    A    
O12   H16   S    
C6    C28   A    
C19   C20   S    
C8    C9    A    
O7    Zn1   S    
C16   C19   A    
