data_str_m3_o10_o28_f0_pcu.sym.57
_audit_creation_date              2012-12-10T16:58:30-0500
_audit_creation_method            fapswitch 2.2
_symmetry_space_group_name_H-M    P1
_symmetry_Int_Tables_number       1
_space_group_crystal_system       triclinic
_cell_length_a                    7.745009
_cell_length_b                    8.566159
_cell_length_c                    23.420425
_cell_angle_alpha                 91.026111
_cell_angle_beta                  85.873586
_cell_angle_gamma                 93.720544
_cell_volume                      1546.39648417

loop_
_atom_site_label
_atom_site_type_symbol
_atom_type_description
_atom_site_fract_x
_atom_site_fract_y
_atom_site_fract_z
_atom_type_partial_charge
C1    C     C_R   0.545914 0.794843 0.498509 0.975285
C2    C     C_R   0.647037 0.491580 0.292378 -0.204637
C3    C     C_R   0.357166 0.507239 0.766671 -0.096157
C4    C     C_R   0.642836 0.492781 0.233329 -0.096156
C5    C     C_R   0.515061 0.496678 0.791181 0.315763
C6    C     C_R   0.484939 0.503329 0.208818 0.315759
C7    C     C_2   0.570153 0.958313 0.497648 -0.371874
C8    C     C_2   0.429847 0.041687 0.502352 -0.371874
C9    C     C_R   0.502283 0.499978 0.610637 0.875197
C10   C     C_R   0.497717 0.500022 0.389363 0.875196
C11   C     C_R   0.420292 0.372184 0.120727 0.516783
C12   C     C_R   0.454086 0.205157 0.501491 0.975286
C13   C     C_R   0.579709 0.627822 0.879273 0.516783
C14   C     C_R   0.547894 0.633993 0.119467 0.516231
C15   C     C_R   0.452105 0.366015 0.880532 0.516232
C16   C     C_R   0.556646 0.634674 0.059841 -0.021600
C17   C     C_R   0.443354 0.365334 0.940159 -0.021600
C18   C     C_R   0.495228 0.500258 0.030129 -0.060352
C19   C     C_R   0.504772 0.499749 0.969871 -0.060352
C20   C     C_R   0.424675 0.366600 0.060594 -0.014251
C21   C     C_R   0.575326 0.633407 0.939406 -0.014251
C22   C     C_R   0.626812 0.766339 0.029703 -0.241738
C23   C     C_R   0.669308 0.487526 0.756849 -0.090360
C24   C     C_R   0.373188 0.233669 0.970296 -0.241738
C25   C     C_R   0.636930 0.767287 0.970009 0.106570
C26   C     C_R   0.363070 0.232720 0.029991 0.106570
C27   C     C_R   0.330691 0.512466 0.243151 -0.090358
C28   C     C_R   0.665605 0.488629 0.697670 -0.212610
C29   C     C_R   0.334393 0.511360 0.302329 -0.212611
C30   C     C_R   0.507206 0.499068 0.672731 -0.040229
C31   C     C_R   0.492794 0.500935 0.327269 -0.040228
C32   C     C_R   0.352966 0.508437 0.707622 -0.204636
H1    H     H_    0.674745 0.869969 0.052318 0.194221
H2    H     H_    0.761939 0.485258 0.206480 0.139102
H3    H     H_    0.702609 0.009502 0.493158 0.180873
H4    H     H_    0.297391 0.990498 0.506842 0.180873
H5    H     H_    0.014063 0.382804 0.456847 0.191550
H6    H     H_    0.985937 0.617195 0.543153 0.191551
H7    H     H_    0.837094 0.927183 0.953442 0.185704
H8    H     H_    0.638656 0.999172 0.955187 0.190352
H9    H     H_    0.162906 0.072825 0.046558 0.185704
H10   H     H_    0.361344 0.000835 0.044812 0.190353
H11   H     H_    0.325254 0.130039 0.947682 0.194221
H12   H     H_    0.791388 0.479394 0.776097 0.138183
H13   H     H_    0.208610 0.520588 0.223903 0.138184
H14   H     H_    0.786215 0.481440 0.671602 0.160580
H15   H     H_    0.213782 0.518537 0.328398 0.160578
H16   H     H_    0.229241 0.516554 0.689423 0.162305
H17   H     H_    0.770762 0.483475 0.310577 0.162305
H18   H     H_    0.238065 0.514774 0.793520 0.139101
N1    N     N_R   0.482037 0.503919 0.148207 -0.368061
N2    N     N_R   0.517964 0.496088 0.851793 -0.368061
N3    N     N_2   0.950330 0.457950 0.484560 -0.175509
N4    N     N_2   0.049670 0.542050 0.515440 -0.175509
N5    N     N_3   0.710553 0.904861 0.941189 -0.363544
N6    N     N_3   0.289447 0.095147 0.058811 -0.363544
O1    O     O_R   0.389250 0.738570 0.503790 -0.611022
O2    O     O_2   0.642512 0.752625 0.848141 -0.509218
O3    O     O_2   0.605023 0.762015 0.148790 -0.537762
O4    O     O_2   0.394975 0.237994 0.851209 -0.537761
O5    O     O_R   0.610750 0.261430 0.496210 -0.611022
O6    O     O_R   0.678390 0.711620 0.493890 -0.628538
O7    O     O_R   0.321610 0.288380 0.506110 -0.628538
O8    O     O_R   0.355400 0.513520 0.588790 -0.621173
O9    O     O_R   0.644600 0.486480 0.411210 -0.621173
O10   O     O_R   0.644550 0.486570 0.578900 -0.629686
O11   O     O_R   0.355450 0.513430 0.421100 -0.629686
O12   O     O_2   0.357492 0.247381 0.151859 -0.509219
Zn1   Zn    Zn3+2 0.306930 0.518000 0.506610 0.949623
Zn2   Zn    Zn3+2 0.693070 0.482000 0.493390 0.949623

loop_
_geom_bond_atom_site_label_1
_geom_bond_atom_site_label_2
_ccdc_geom_bond_type
O5    Zn2   S    
C2    C4    A    
H9    N6    S    
C14   O3    S    
C2    H17   S    
C1    O1    A    
C6    N1    S    
C27   C29   A    
C9    O8    A    
O8    Zn1   S    
C15   O4    S    
H10   N6    S    
C14   N1    A    
C5    C23   A    
C8    C12   S    
H8    N5    S    
H5    N3    S    
C1    O6    A    
C27   H13   S    
C28   C30   A    
C25   N5    S    
C3    C5    A    
C13   C21   A    
C7    C8    D    
C29   C31   A    
C10   O11   A    
N3    N4    D    
C30   C32   A    
C12   O5    A    
C32   H16   S    
C28   H14   S    
O10   Zn2   S    
N4    Zn1   S    
C20   C26   A    
C9    C30   S    
C29   H15   S    
N3    Zn2   S    
C4    C6    A    
C19   C21   A    
C3    H18   S    
C24   C26   A    
C18   C20   A    
O1    Zn1   S    
C3    C32   A    
C24   H11   S    
C4    H2    S    
C11   C20   A    
C17   C24   A    
C23   C28   A    
C23   H12   S    
C5    N2    S    
O9    Zn2   S    
C13   N2    A    
O7    Zn1   S    
C11   N1    A    
C11   O12   S    
O6    Zn2   S    
C16   C18   A    
C18   C19   A    
C8    H4    S    
C10   O9    A    
C15   C17   A    
C12   O7    A    
C21   C25   A    
C9    O10   A    
C16   C22   A    
C13   O2    S    
C22   H1    S    
C17   C19   A    
C14   C16   A    
C1    C7    S    
C7    H3    S    
C10   C31   S    
H7    N5    S    
C15   N2    A    
C6    C27   A    
C26   N6    S    
C2    C31   A    
O11   Zn1   S    
C22   C25   A    
H6    N4    S    
