data_str_m2_o14_o16_f0_pcu.sym.226
_audit_creation_date              2013-03-05T15:50:33-0500
_audit_creation_method            fapswitch 2.2
_symmetry_space_group_name_H-M    P1
_symmetry_Int_Tables_number       1
_space_group_crystal_system       triclinic
_cell_length_a                    9.686946
_cell_length_b                    10.80945
_cell_length_c                    13.40939
_cell_angle_alpha                 95.236075
_cell_angle_beta                  74.346721
_cell_angle_gamma                 90.870065
_cell_volume                      1346.32233983

loop_
_atom_site_label
_atom_site_type_symbol
_atom_site_description
_atom_site_fract_x
_atom_site_fract_y
_atom_site_fract_z
_atom_type_partial_charge
O1    O     O_R   0.381190 0.680360 0.500010 -0.582507
O2    O     O_R   0.618760 0.680340 0.500000 -0.566157
C1    C     C_R   0.498673 0.737546 0.506641 0.857232
O3    O     O_R   0.323240 0.499990 0.650990 -0.515985
O4    O     O_R   0.560820 0.499960 0.650980 -0.590002
C2    C     C_R   0.425065 0.481384 0.696560 0.927063
Cu1   Cu    Cu3+1 0.359340 0.500010 0.500010 0.997453
Cu2   Cu    Cu3+1 0.640660 0.499990 0.499990 0.961473
O5    O     O_R   0.381240 0.319660 0.500000 -0.573049
O6    O     O_R   0.618810 0.319640 0.499990 -0.623006
O7    O     O_R   0.439180 0.500040 0.349020 -0.558211
O8    O     O_R   0.676760 0.500010 0.349010 -0.596211
C3    C     C_R   0.496860 0.263180 0.504966 0.747011
C4    C     C_R   0.575686 0.505701 0.301278 0.817869
C5    C     C_R   0.795394 0.519381 0.025132 -0.079053
H1    H     H_    0.837464 0.555994 0.173729 0.182472
H2    H     H_    0.850519 0.435013 0.825100 0.143247
H3    H     H_    0.905394 0.534941 0.984474 0.141192
C6    C     C_R   0.615365 0.510965 0.188318 -0.071435
C7    C     C_R   0.241087 0.415670 0.855113 0.073178
C8    C     C_R   0.202935 0.390246 0.960494 0.340986
C9    C     C_R   0.302968 0.411460 0.017896 -0.252957
C10   C     C_R   0.446065 0.439938 0.969397 0.012789
C11   C     C_R   0.490825 0.429942 0.859583 0.002533
C12   C     C_R   0.548387 0.470696 0.025825 0.113070
C13   C     C_R   0.694317 0.481636 0.971223 0.104188
C14   C     C_R   0.738388 0.444990 0.865018 -0.187891
C15   C     C_R   0.638700 0.407481 0.811116 0.186099
C16   C     C_R   0.510380 0.491905 0.134612 -0.242011
C17   C     C_R   0.756654 0.532013 0.133240 -0.079281
C18   C     C_R   0.385800 0.440291 0.804191 -0.150984
H4    H     H_    0.399819 0.492519 0.179158 0.158838
H5    H     H_    0.268764 0.396723 0.099293 0.173359
H6    H     H_    0.700509 0.879828 0.403637 0.171701
C19   C     C_R   0.282328 0.889598 0.674782 0.315578
C20   C     C_R   0.157560 0.956677 0.727989 -0.154586
H7    H     H_    0.076543 0.916962 0.788743 0.195441
C21   C     C_R   0.141302 0.079149 0.710504 -0.172884
H8    H     H_    0.045949 0.130480 0.754418 0.189502
C22   C     C_R   0.251502 0.138263 0.642948 -0.204746
H9    H     H_    0.237176 0.236209 0.640744 0.185792
C23   C     C_R   0.374582 0.071535 0.581954 0.059309
C24   C     C_R   0.384336 0.942441 0.592036 -0.000079
C25   C     C_R   0.497825 0.872596 0.520604 -0.085195
C26   C     C_R   0.611308 0.932345 0.455926 -0.187444
H10   H     H_    0.699896 0.103186 0.404913 0.185811
C27   C     C_R   0.609782 0.059597 0.455177 -0.149725
C28   C     C_R   0.491028 0.129651 0.513951 -0.098145
H11   H     H_    0.831964 0.648853 0.615308 0.162016
C29   C     C_R   0.895544 0.328785 0.365558 -0.213382
H12   H     H_    0.790879 0.331539 0.357745 0.240478
C30   C     C_R   0.977213 0.233269 0.303299 0.331873
C31   C     C_R   0.117925 0.224929 0.302888 -0.304031
H13   H     H_    0.184231 0.152737 0.251334 0.200655
C32   C     C_R   0.181409 0.312731 0.359629 0.103360
C33   C     C_R   0.096719 0.410743 0.432398 0.203201
C34   C     C_R   0.946683 0.413922 0.433522 0.105352
N1    N     N_R   0.852480 0.498790 0.499000 -0.201831
C35   C     C_R   0.904555 0.581600 0.563075 -0.070925
H14   H     H_    0.087584 0.649493 0.614616 0.171291
C36   C     C_R   0.051611 0.581813 0.562881 -0.045070
N2    N     N_R   0.148360 0.498710 0.498970 -0.186679
N3    N     N_R   0.314315 0.779985 0.717754 0.105712
O9    O     O_R   0.442348 0.765292 0.728747 -0.377184
O10   O     O_R   0.210077 0.716213 0.771700 -0.397209
N4    N     N_R   0.918792 0.148075 0.236239 0.155005
O11   O     O_R   0.798221 0.172842 0.216465 -0.342821
O12   O     O_R   0.988405 0.047038 0.191213 -0.331965
N5    N     N_3   0.332760 0.298149 0.332532 -0.477188
H15   H     H_    0.356947 0.207104 0.343677 0.221357
H16   H     H_    0.372742 0.305260 0.252668 0.207551
N6    N     N_3   0.133628 0.423530 0.800772 -0.560575
H17   H     H_    0.065983 0.498180 0.835885 0.238627
H18   H     H_    0.077033 0.341058 0.800548 0.236557
N7    N     N_R   0.063329 0.345658 0.011344 0.115453
O13   O     O_R   0.012322 0.369377 0.111276 -0.379068
O14   O     O_R   0.000467 0.261702 0.963629 -0.346318
N8    N     N_3   0.687508 0.321047 0.720574 -0.564839
H19   H     H_    0.755912 0.366031 0.661064 0.254779
H20   H     H_    0.601724 0.282040 0.695836 0.224179

loop_
_geom_bond_atom_site_label_1
_geom_bond_atom_site_label_2
_geom_bond_distance
_ccdc_geom_bond_type
C5    H3    1.076457 S    
N4    O12   1.301679 A    
C32   C33   1.467434 A    
N3    O10   1.301453 A    
C19   C20   1.400862 A    
C24   C25   1.421639 A    
C30   N4    1.443814 S    
Cu1   Cu2   2.725062 S    
C31   H13   1.084698 S    
C30   C31   1.365904 A    
Cu1   O7    1.962805 S    
C13   C14   1.393356 A    
C20   H7    1.082823 S    
C16   H4    1.076182 S    
C21   H8    1.081771 S    
O7    C4    1.307668 A    
N8    H20   1.044486 S    
H1    C17   1.082699 S    
C33   C34   1.450300 A    
N5    H16   1.045513 S    
O5    C3    1.303845 A    
Cu2   N1    2.048577 S    
C29   C30   1.378387 A    
C10   C11   1.412766 A    
C19   C24   1.428541 A    
C31   C32   1.400294 A    
C2    C18   1.496875 S    
C8    C9    1.395559 A    
N5    H15   1.048102 S    
O3    Cu1   1.959368 S    
C26   C27   1.376808 A    
C12   C16   1.402781 A    
C1    C25   1.454594 S    
C35   C36   1.423788 A    
H2    C14   1.075762 S    
O3    C2    1.319279 A    
N8    H19   1.043080 S    
C5    C13   1.401324 A    
C12   C13   1.414415 A    
H14   C36   1.080751 S    
O1    C1    1.307055 A    
N7    O13   1.299773 A    
Cu1   N2    2.047386 S    
C3    C28   1.458298 S    
C27   C28   1.395058 A    
Cu2   O8    1.959368 S    
C29   H12   1.048160 S    
H6    C26   1.084366 S    
C23   C28   1.423559 A    
N7    O14   1.300481 A    
C32   N5    1.419684 S    
N6    H18   1.039645 S    
C22   H9    1.073982 S    
O8    C4    1.311213 A    
C33   N2    1.422287 A    
C23   C24   1.421181 A    
C6    C16   1.398973 A    
C15   N8    1.437757 S    
C25   C26   1.394263 A    
C5    C17   1.390274 A    
Cu1   O5    1.964177 S    
C9    H5    1.077716 S    
H10   C27   1.079940 S    
O1    Cu1   1.957744 S    
C29   C34   1.414064 A    
C4    C6    1.465013 S    
O2    Cu2   1.964178 S    
C11   C15   1.418681 A    
N6    H17   1.040400 S    
O6    C3    1.309749 A    
O4    Cu2   1.962805 S    
C8    N7    1.438296 S    
H11   C35   1.081816 S    
C20   C21   1.383935 A    
O2    C1    1.303615 A    
N1    C35   1.368859 A    
C11   C18   1.423266 A    
C21   C22   1.389818 A    
C34   N1    1.375229 A    
O4    C2    1.312966 A    
C22   C23   1.415256 A    
N4    O11   1.302187 A    
C10   C12   1.419273 A    
C36   N2    1.367984 A    
N3    O9    1.301567 A    
C7    C8    1.412410 A    
Cu2   O6    1.957743 S    
C14   C15   1.389467 A    
C9    C10   1.405812 A    
C7    N6    1.430066 S    
C19   N3    1.436679 S    
C6    C17   1.395063 A    
C7    C18   1.416864 A    
