data_str_m9_o13_o18_f0_sra.sym.59
_audit_creation_date              2012-12-11T14:45:30-0500
_audit_creation_method            fapswitch 2.2
_symmetry_space_group_name_H-M    P1
_symmetry_Int_Tables_number       1
_space_group_crystal_system       triclinic
_cell_length_a                    24.889033
_cell_length_b                    7.170735
_cell_length_c                    14.389923
_cell_angle_alpha                 90.289918
_cell_angle_beta                  102.758267
_cell_angle_gamma                 87.479753
_cell_volume                      2502.34869711

loop_
_atom_site_label
_atom_site_type_symbol
_atom_type_description
_atom_site_fract_x
_atom_site_fract_y
_atom_site_fract_z
_atom_type_partial_charge
O1    O     O_R   0.319150 0.364170 0.330530 -0.541513
O2    O     O_R   0.680850 0.635830 0.669470 -0.541513
O3    O     O_R   0.180850 0.864170 0.169470 -0.537213
O4    O     O_R   0.819150 0.135830 0.830530 -0.537212
O5    O     O_R   0.210330 0.696850 0.354180 -0.535842
O6    O     O_R   0.789670 0.303150 0.645820 -0.535843
O7    O     O_R   0.289670 0.196850 0.145820 -0.537933
O8    O     O_R   0.710330 0.803150 0.854180 -0.537932
C1    C     C_R   0.197436 0.527638 0.378735 0.685193
C2    C     C_R   0.802564 0.472362 0.621265 0.685192
C3    C     C_R   0.302291 0.022933 0.121141 0.689303
C4    C     C_R   0.697709 0.977067 0.878858 0.689303
O9    O     O_R   0.320550 0.694110 0.341970 -0.539537
O10   O     O_R   0.679450 0.305890 0.658030 -0.539537
O11   O     O_R   0.179450 0.194110 0.158030 -0.546047
O12   O     O_R   0.820550 0.805890 0.841970 -0.546047
O13   O     O_R   0.291860 0.861000 0.157170 -0.534257
O14   O     O_R   0.708140 0.139000 0.842830 -0.534257
O15   O     O_R   0.208140 0.361000 0.342830 -0.536681
O16   O     O_R   0.791860 0.639000 0.657170 -0.536681
C5    C     C_R   0.341722 0.521710 0.362605 0.697019
C6    C     C_R   0.658277 0.478289 0.637395 0.697019
C7    C     C_R   0.157967 0.029387 0.137534 0.695897
C8    C     C_R   0.842033 0.970612 0.862466 0.695897
O17   O     O_3   0.240460 0.529330 0.189380 -0.373910
O18   O     O_3   0.759540 0.470670 0.810620 -0.373910
O19   O     O_3   0.259540 0.029330 0.310620 -0.374458
O20   O     O_3   0.740460 0.970670 0.689380 -0.374458
V1    V     V_3+5 0.251770 0.805510 0.261240 1.423729
V2    V     V_3+5 0.748230 0.194490 0.738760 1.423729
V3    V     V_3+5 0.248230 0.305510 0.238760 1.415862
V4    V     V_3+5 0.751770 0.694490 0.761240 1.415862
C9    C     C_R   0.101936 0.036107 0.074594 -0.105921
C10   C     C_R   0.898064 0.963893 0.925406 -0.105921
C11   C     C_R   0.397169 0.497880 0.425894 -0.104383
C12   C     C_R   0.602831 0.502120 0.574106 -0.104383
C13   C     C_R   0.968962 0.792195 0.042699 0.166670
C14   C     C_R   0.031038 0.207804 0.957301 0.166670
C15   C     C_R   0.536809 0.696745 0.459862 0.164354
C16   C     C_R   0.463191 0.303255 0.540138 0.164354
C17   C     C_R   0.914670 0.814095 0.989110 -0.170152
C18   C     C_R   0.085330 0.185904 0.010889 -0.170152
C19   C     C_R   0.590468 0.657131 0.512956 -0.165518
C20   C     C_R   0.409532 0.342869 0.487044 -0.165518
C21   C     C_R   0.936441 0.095687 0.916299 -0.230968
C22   C     C_R   0.063559 0.904312 0.083701 -0.230968
C23   C     C_R   0.560944 0.383143 0.581538 -0.231326
C24   C     C_R   0.439056 0.616857 0.418462 -0.231326
C25   C     C_R   0.991722 0.076967 0.968136 0.098586
C26   C     C_R   0.008278 0.923032 0.031864 0.098586
C27   C     C_R   0.506151 0.420432 0.530665 0.097856
C28   C     C_R   0.493849 0.579568 0.469335 0.097856
H1    H     H_    0.076876 0.790973 0.133991 0.143986
H2    H     H_    0.923124 0.209027 0.866010 0.143986
H3    H     H_    0.428740 0.734221 0.369866 0.142374
H4    H     H_    0.571260 0.265779 0.630134 0.142374
H5    H     H_    0.115012 0.287766 0.003337 0.133513
H6    H     H_    0.884989 0.712233 0.996662 0.133513
H7    H     H_    0.376922 0.251180 0.492846 0.130656
H8    H     H_    0.623077 0.748820 0.507154 0.130656
C29   C     C_R   0.666343 0.994785 0.953642 -0.032092
C30   C     C_R   0.333657 0.005215 0.046358 -0.032091
C31   C     C_R   0.834004 0.471274 0.546067 -0.033953
C32   C     C_R   0.165996 0.528726 0.453933 -0.033954
C33   C     C_R   0.656628 0.096068 0.109538 -0.172421
C34   C     C_R   0.343371 0.903933 0.890461 -0.172422
C35   C     C_R   0.845149 0.383460 0.388867 -0.173137
C36   C     C_R   0.154851 0.616540 0.611133 -0.173137
C37   C     C_R   0.690314 0.058421 0.045313 0.149918
C38   C     C_R   0.309686 0.941580 0.954687 0.149918
C39   C     C_R   0.810977 0.411322 0.453170 0.152480
C40   C     C_R   0.189023 0.588678 0.546829 0.152480
C41   C     C_R   0.609905 0.965511 0.928519 -0.247457
C42   C     C_R   0.390095 0.034488 0.071480 -0.247457
C43   C     C_R   0.889933 0.509548 0.571694 -0.248573
C44   C     C_R   0.110067 0.490452 0.428306 -0.248573
C45   C     C_R   0.574968 0.001960 0.992635 0.056426
C46   C     C_R   0.425032 0.998039 0.007365 0.056426
C47   C     C_R   0.925238 0.484368 0.507120 0.056268
C48   C     C_R   0.074762 0.515633 0.492880 0.056268
C49   C     C_R   0.599174 0.072536 0.084290 0.086481
C50   C     C_R   0.400826 0.927464 0.915710 0.086481
C51   C     C_R   0.902170 0.414230 0.414876 0.086347
C52   C     C_R   0.097829 0.585770 0.585123 0.086347
C53   C     C_R   0.516770 0.975223 0.967242 0.021323
C54   C     C_R   0.483230 0.024776 0.032757 0.021323
C55   C     C_R   0.982867 0.520749 0.532726 0.021250
C56   C     C_R   0.017133 0.479251 0.467274 0.021250
C57   C     C_R   0.508783 0.100506 0.121621 -0.177692
C58   C     C_R   0.491217 0.899493 0.878379 -0.177692
C59   C     C_R   0.992915 0.401080 0.378372 -0.177711
C60   C     C_R   0.007085 0.598921 0.621628 -0.177711
C61   C     C_R   0.565555 0.122303 0.148358 0.152536
C62   C     C_R   0.434445 0.877696 0.851642 0.152536
C63   C     C_R   0.936563 0.371372 0.351083 0.153227
C64   C     C_R   0.063437 0.628629 0.648916 0.153227
H9    H     H_    0.405435 0.077813 0.143812 0.105410
H10   H     H_    0.594565 0.922186 0.856187 0.105410
H11   H     H_    0.095078 0.451382 0.355156 0.107429
H12   H     H_    0.904922 0.548617 0.644844 0.107429
H13   H     H_    0.676101 0.146964 0.179239 0.137687
H14   H     H_    0.323898 0.853038 0.820761 0.137687
H15   H     H_    0.826428 0.334280 0.318422 0.137602
H16   H     H_    0.173572 0.665721 0.681578 0.137602
H17   H     H_    0.485462 0.147276 0.172482 0.128356
H18   H     H_    0.514537 0.852723 0.827518 0.128356
H19   H     H_    0.017120 0.358184 0.328113 0.128786
H20   H     H_    0.982880 0.641816 0.671887 0.128787
C65   C     C_3   0.983759 0.627639 0.110002 -0.820897
H21   H     H_    0.948129 0.538395 0.107328 0.216427
H22   H     H_    0.017308 0.539287 0.090532 0.219129
H23   H     H_    0.997373 0.677621 0.184301 0.215539
C66   C     C_3   0.016241 0.372358 0.889997 -0.820898
H24   H     H_    0.051871 0.461601 0.892670 0.216427
H25   H     H_    0.002627 0.322375 0.815697 0.215539
H26   H     H_    0.982693 0.460712 0.909466 0.219129
C67   C     C_3   0.526673 0.864650 0.394326 -0.818472
H27   H     H_    0.564846 0.941336 0.397771 0.216012
H28   H     H_    0.511583 0.819392 0.319540 0.217157
H29   H     H_    0.495680 0.963391 0.414654 0.216447
C68   C     C_3   0.473326 0.135351 0.605674 -0.818473
H30   H     H_    0.435154 0.058666 0.602229 0.216012
H31   H     H_    0.504320 0.036609 0.585346 0.216447
H32   H     H_    0.488417 0.180609 0.680460 0.217157
C69   C     C_3   0.589000 0.203750 0.245407 -0.804065
H33   H     H_    0.619400 0.102385 0.288392 0.205380
H34   H     H_    0.609353 0.335529 0.237189 0.214922
H35   H     H_    0.556723 0.236847 0.286107 0.216310
C70   C     C_3   0.411000 0.796249 0.754592 -0.804066
H36   H     H_    0.380600 0.897615 0.711608 0.205380
H37   H     H_    0.443277 0.763152 0.713893 0.216310
H38   H     H_    0.390646 0.664470 0.762810 0.214922
C71   C     C_3   0.914513 0.287978 0.253976 -0.804435
H39   H     H_    0.883522 0.386586 0.210252 0.205435
H40   H     H_    0.947431 0.258124 0.214248 0.214723
H41   H     H_    0.895256 0.153902 0.261968 0.215492
C72   C     C_3   0.085487 0.712023 0.746024 -0.804435
H42   H     H_    0.104744 0.846098 0.738032 0.215492
H43   H     H_    0.052569 0.741876 0.785751 0.214724
H44   H     H_    0.116477 0.613414 0.789748 0.205435
C73   C     C_3   0.248835 0.909782 0.922692 -0.790237
H45   H     H_    0.225150 0.950916 0.976927 0.192615
H46   H     H_    0.231398 0.993189 0.857322 0.204929
H47   H     H_    0.242711 0.759724 0.906206 0.210825
C74   C     C_3   0.751165 0.090220 0.077308 -0.790233
H48   H     H_    0.774850 0.049085 0.023073 0.192615
H49   H     H_    0.757289 0.240279 0.093794 0.210824
H50   H     H_    0.768602 0.006814 0.142679 0.204929
C75   C     C_3   0.249407 0.626789 0.580140 -0.788888
H51   H     H_    0.273866 0.589369 0.526507 0.193634
H52   H     H_    0.254034 0.777230 0.597216 0.210549
H53   H     H_    0.267219 0.543547 0.645417 0.203635
C76   C     C_3   0.750592 0.373211 0.419860 -0.788889
H54   H     H_    0.726134 0.410630 0.473493 0.193635
H55   H     H_    0.732781 0.456455 0.354584 0.203635
H56   H     H_    0.745966 0.222771 0.402783 0.210549

loop_
_geom_bond_atom_site_label_1
_geom_bond_atom_site_label_2
_ccdc_geom_bond_type
O17   V3    S    
C24   H3    S    
C55   C56   A    
O1    C5    A    
C50   C62   A    
O19   V1    S    
C1    C32   S    
O13   V1    S    
C34   H14   S    
O3    C7    A    
C2    C31   S    
C33   H13   S    
C48   C52   A    
C3    C30   S    
O15   V3    S    
C47   C55   A    
C74   H48   S    
C35   H15   S    
C14   C25   A    
C34   C38   A    
C53   C54   A    
C44   H11   S    
O7    C3    A    
C16   C68   S    
C72   H43   S    
C9    C18   A    
O9    V1    S    
C17   H6    S    
C14   C18   A    
C67   H28   S    
O4    C8    A    
C20   H7    S    
C39   C76   S    
C63   C71   S    
C37   C74   S    
C30   C38   A    
C12   C23   A    
O2    V4    S    
C52   C64   A    
O3    V1    S    
C68   H32   S    
C75   H51   S    
C60   H20   S    
C2    O16   A    
C7    C9    S    
O2    C6    A    
C69   H35   S    
O14   V2    S    
C45   C49   A    
C76   H55   S    
C16   C20   A    
C13   C65   S    
C36   C40   A    
C66   H26   S    
C46   C54   A    
O11   C7    A    
C15   C28   A    
C45   C53   A    
O12   C8    A    
C55   C60   A    
C57   C61   A    
C9    C22   A    
C75   H52   S    
C10   C17   A    
O10   V2    S    
C11   C24   A    
C18   H5    S    
C74   H49   S    
C1    O15   A    
C58   C62   A    
C42   H9    S    
O5    V1    S    
O1    V3    S    
C41   H10   S    
C72   H44   S    
C62   C70   S    
O7    V3    S    
C27   C28   A    
C36   C52   A    
C59   H19   S    
C58   H18   S    
C65   H21   S    
C67   H29   S    
C64   C72   S    
C14   C66   S    
O18   V4    S    
C15   C19   A    
C29   C41   A    
C15   C67   S    
C8    C10   S    
C65   H23   S    
C73   H46   S    
O8    V4    S    
O5    C1    A    
C34   C50   A    
C49   C61   A    
C46   C50   A    
C33   C49   A    
C56   C59   A    
C21   C25   A    
O8    C4    A    
C51   C63   A    
C32   C44   A    
O9    C5    A    
C10   C21   A    
C35   C51   A    
C76   H56   S    
C11   C20   A    
C68   H30   S    
C19   H8    S    
C71   H41   S    
C75   H53   S    
O6    V2    S    
C31   C39   A    
C21   H2    S    
C40   C75   S    
C71   H39   S    
C73   H47   S    
C44   C48   A    
C57   H17   S    
C74   H50   S    
C71   H40   S    
C66   H24   S    
O16   V4    S    
C29   C37   A    
C3    O13   A    
C38   C73   S    
C36   H16   S    
C54   C57   A    
O6    C2    A    
C23   C27   A    
C53   C58   A    
O11   V3    S    
C5    C11   S    
O12   V4    S    
C16   C27   A    
C6    C12   S    
C72   H42   S    
C22   C26   A    
C70   H38   S    
C65   H22   S    
C70   H36   S    
O20   V2    S    
C48   C56   A    
C73   H45   S    
C47   C51   A    
C4    C29   S    
O10   C6    A    
C69   H33   S    
C31   C43   A    
C33   C37   A    
C22   H1    S    
C13   C26   A    
C43   H12   S    
C60   C64   A    
C35   C39   A    
C32   C40   A    
C13   C17   A    
C61   C69   S    
C68   H31   S    
C59   C63   A    
C24   C28   A    
C25   C26   A    
C42   C46   A    
C4    O14   A    
C69   H34   S    
C41   C45   A    
C30   C42   A    
C12   C19   A    
C66   H25   S    
C76   H54   S    
C67   H27   S    
C43   C47   A    
O4    V2    S    
C23   H4    S    
C70   H37   S    
