data_str_m12_o10_o24_f0_bcu.sym.84
_audit_creation_date              2012-12-11T14:11:04-0500
_audit_creation_method            fapswitch 2.2
_symmetry_space_group_name_H-M    P1
_symmetry_Int_Tables_number       1
_space_group_crystal_system       triclinic
_cell_length_a                    19.704298
_cell_length_b                    17.408681
_cell_length_c                    15.429888
_cell_angle_alpha                 90.003256
_cell_angle_beta                  52.567331
_cell_angle_gamma                 90.00771
_cell_volume                      4202.88392008

loop_
_atom_site_label
_atom_site_type_symbol
_atom_type_description
_atom_site_fract_x
_atom_site_fract_y
_atom_site_fract_z
_atom_type_partial_charge
C1    C     C_R   0.373515 0.196278 0.996651 -0.232346
C2    C     C_3   0.667256 0.720895 0.467176 0.679239
C3    C     C_3   0.063683 0.520189 0.358949 -0.878907
C4    C     C_3   0.284458 0.490783 0.002049 0.296566
C5    C     C_3   0.326702 0.522349 0.050728 -0.825663
C6    C     C_3   0.943647 0.548540 0.727867 0.350916
C7    C     C_3   0.936188 0.520041 0.641179 -0.878464
C8    C     C_3   0.486506 0.708520 0.683625 0.329853
C9    C     C_3   0.401802 0.681392 0.787087 -0.832375
C10   C     C_3   0.434056 0.251805 0.339272 0.281651
C11   C     C_3   0.489209 0.304625 0.351565 -0.767167
C12   C     C_3   0.513738 0.709487 0.316193 0.326959
C13   C     C_3   0.748093 0.232773 0.448639 0.696164
C14   C     C_3   0.598718 0.681064 0.214423 -0.826864
C15   C     C_3   0.565974 0.250860 0.659831 0.281220
C16   C     C_3   0.510518 0.303340 0.647696 -0.766526
C17   C     C_3   0.986689 0.208070 0.683229 0.331842
C18   C     C_3   0.902146 0.182175 0.788010 -0.836185
C19   C     C_3   0.933982 0.751541 0.339595 0.281678
C20   C     C_3   0.989213 0.804265 0.351862 -0.767323
C21   C     C_3   0.013659 0.209469 0.316439 0.327500
C22   C     C_3   0.098616 0.181539 0.214139 -0.828172
C23   C     C_3   0.066044 0.750866 0.659778 0.281385
C24   C     C_3   0.332658 0.721200 0.533114 0.679896
C25   C     C_3   0.010596 0.803348 0.647632 -0.766888
C26   C     C_3   0.752125 0.733127 0.551113 0.696331
C27   C     C_3   0.167260 0.220822 0.467296 0.678553
C28   C     C_3   0.248171 0.732750 0.448601 0.696281
C29   C     C_3   0.832610 0.221252 0.533121 0.679496
C30   C     C_2   0.190971 0.742920 0.093739 -0.149769
C31   C     C_2   0.717936 0.308861 0.039406 -0.203116
C32   C     C_2   0.808972 0.742905 0.906391 -0.150072
C33   C     C_R   0.659759 0.823943 0.951945 -0.178049
C34   C     C_2   0.281896 0.308766 0.960894 -0.203088
C35   C     C_2   0.690978 0.242918 0.093734 -0.149526
C36   C     C_2   0.217948 0.808852 0.039385 -0.203099
C37   C     C_2   0.308970 0.242901 0.906383 -0.149927
C38   C     C_2   0.781855 0.808742 0.960966 -0.203034
C39   C     C_R   0.388358 0.804498 0.215155 -0.045467
C40   C     C_R   0.650748 0.171910 0.778389 -0.073445
C41   C     C_R   0.611641 0.804504 0.784842 -0.045311
C42   C     C_R   0.349276 0.171915 0.221642 -0.074261
C43   C     C_R   0.888330 0.304507 0.215168 -0.045341
C44   C     C_R   0.626484 0.196289 0.003373 -0.232372
C45   C     C_R   0.150755 0.671902 0.778388 -0.073624
C46   C     C_R   0.111661 0.304511 0.784829 -0.045176
C47   C     C_R   0.849265 0.671906 0.221635 -0.074201
C48   C     C_R   0.325879 0.914859 0.959932 0.484805
C49   C     C_R   0.630138 0.113498 0.107632 0.506479
C50   C     C_R   0.674042 0.914807 0.040256 0.484483
C51   C     C_R   0.369875 0.113496 0.892356 0.507062
C52   C     C_R   0.825874 0.414866 0.959946 0.485138
C53   C     C_R   0.130130 0.613498 0.107642 0.506714
C54   C     C_R   0.174060 0.414819 0.040213 0.484528
C55   C     C_R   0.340209 0.823964 0.048131 -0.178876
C56   C     C_R   0.869877 0.613497 0.892354 0.507122
C57   C     C_R   0.357623 0.079944 0.317048 -0.217037
C58   C     C_R   0.604740 0.896446 0.688720 -0.169835
C59   C     C_R   0.642440 0.079921 0.682971 -0.217437
C60   C     C_R   0.395227 0.896456 0.311296 -0.170085
C61   C     C_R   0.857602 0.579935 0.317043 -0.217152
C62   C     C_R   0.104743 0.396451 0.688719 -0.169710
C63   C     C_R   0.142444 0.579916 0.682972 -0.217468
C64   C     C_R   0.895202 0.396467 0.311307 -0.170206
C65   C     C_R   0.347126 0.186320 0.933084 -0.003494
C66   C     C_R   0.873521 0.696278 0.996645 -0.232399
C67   C     C_R   0.713555 0.851301 0.973595 -0.014810
C68   C     C_R   0.652864 0.186334 0.066949 -0.003315
C69   C     C_R   0.286356 0.851356 0.026607 -0.014788
C70   C     C_R   0.847131 0.686320 0.933081 -0.003536
C71   C     C_R   0.213570 0.351309 0.973560 -0.014801
C72   C     C_R   0.152854 0.686336 0.066961 -0.003472
C73   C     C_R   0.786347 0.351366 0.026626 -0.014748
C74   C     C_R   0.370615 0.822694 0.313467 0.203957
C75   C     C_R   0.690886 0.139770 0.676183 0.222756
C76   C     C_R   0.629354 0.822694 0.686545 0.204538
C77   C     C_R   0.159759 0.323942 0.951940 -0.178300
C78   C     C_R   0.309211 0.139806 0.323859 0.222869
C79   C     C_R   0.870566 0.322715 0.313489 0.204189
C80   C     C_R   0.190897 0.639758 0.676182 0.222804
C81   C     C_R   0.129376 0.322710 0.686534 0.205054
C82   C     C_R   0.809175 0.639785 0.323849 0.222848
C83   C     C_3   0.218735 0.156781 0.539383 -0.465362
C84   C     C_3   0.701020 0.797425 0.479268 -0.469799
C85   C     C_3   0.781925 0.156549 0.460547 -0.464820
C86   C     C_3   0.298731 0.797514 0.520780 -0.469391
C87   C     C_3   0.718490 0.656682 0.539420 -0.465094
C88   C     C_R   0.126478 0.696290 0.003380 -0.232388
C89   C     C_3   0.200984 0.297426 0.479261 -0.469622
C90   C     C_3   0.281975 0.656518 0.460533 -0.464743
C91   C     C_3   0.798653 0.297553 0.520811 -0.469021
C92   C     C_3   0.633144 0.696952 0.583448 0.458259
C93   C     C_3   0.285692 0.257717 0.436505 0.468259
C94   C     C_3   0.367127 0.697121 0.416749 0.458451
C95   C     C_3   0.714245 0.257389 0.563194 0.468279
C96   C     C_3   0.133318 0.196934 0.583518 0.458113
C97   C     C_3   0.785646 0.757606 0.436634 0.468315
C98   C     C_3   0.867066 0.197173 0.416761 0.458356
C99   C     C_R   0.840203 0.323971 0.048143 -0.179554
C100  C     C_3   0.214315 0.757372 0.563155 0.468336
C101  C     C_3   0.667436 0.771868 0.595084 -0.291361
C102  C     C_3   0.252352 0.182406 0.423220 -0.275931
C103  C     C_3   0.332664 0.771822 0.404874 -0.292534
C104  C     C_3   0.747801 0.182379 0.576821 -0.276202
C105  C     C_3   0.167558 0.271925 0.595030 -0.290384
C106  C     C_3   0.752270 0.682372 0.423222 -0.276008
C107  C     C_3   0.832576 0.271861 0.404912 -0.292134
C108  C     C_3   0.247840 0.682352 0.576807 -0.276214
C109  C     C_3   0.215418 0.990975 0.998673 0.296285
C110  C     C_3   0.252322 0.233303 0.550953 0.696203
C111  C     C_3   0.173053 0.022902 0.950338 -0.825855
C112  C     C_3   0.556246 0.048745 0.272253 0.350857
C113  C     C_3   0.563653 0.020240 0.358981 -0.878973
C114  C     C_3   0.784400 0.990689 0.002388 0.296746
C115  C     C_3   0.826588 0.022056 0.051240 -0.825408
C116  C     C_3   0.443643 0.048535 0.727872 0.351027
C117  C     C_3   0.436177 0.020028 0.641193 -0.878830
C118  C     C_3   0.715407 0.490993 0.998724 0.296139
C119  C     C_3   0.673035 0.522943 0.950410 -0.825920
C120  C     C_3   0.056267 0.548689 0.272227 0.350914
F1    F     F_    0.295372 0.241306 0.595365 -0.705810
F2    F     F_    0.625670 0.712820 0.421085 -0.725897
F3    F     F_    0.705290 0.240253 0.403830 -0.705873
F4    F     F_    0.374034 0.713523 0.579533 -0.725954
F5    F     F_    0.795096 0.740981 0.595651 -0.705839
F6    F     F_    0.125559 0.212622 0.421376 -0.726205
F7    F     F_    0.205373 0.740234 0.403785 -0.705882
F8    F     F_    0.874011 0.213615 0.579513 -0.726299
H1    H     H_    0.380185 0.249941 0.025889 0.131772
H2    H     H_    0.669595 0.223071 0.798396 0.126672
H3    H     H_    0.485472 0.351397 0.707109 0.242671
H4    H     H_    0.983821 0.199402 0.614256 0.211754
H5    H     H_    0.994328 0.270418 0.691351 0.072970
H6    H     H_    0.902952 0.190937 0.858705 0.239271
H7    H     H_    0.848840 0.216176 0.801293 0.238300
H8    H     H_    0.891161 0.120394 0.782461 0.252945
H9    H     H_    0.973544 0.729596 0.254595 0.104211
H10   H     H_    0.915101 0.701200 0.394469 0.100311
H11   H     H_    0.951029 0.827841 0.436029 0.277550
H12   H     H_    0.044092 0.771507 0.336060 0.219141
H13   H     H_    0.613978 0.748155 0.812411 0.114246
H14   H     H_    0.014035 0.852395 0.292589 0.242595
H15   H     H_    0.015466 0.203998 0.386672 0.210737
H16   H     H_    0.006604 0.271112 0.304240 0.071737
H17   H     H_    0.098914 0.187102 0.142175 0.237563
H18   H     H_    0.151702 0.216558 0.199865 0.236746
H19   H     H_    0.109049 0.120426 0.223774 0.254514
H20   H     H_    0.026555 0.728790 0.744709 0.104162
H21   H     H_    0.085181 0.700598 0.604716 0.100583
H22   H     H_    0.048688 0.827024 0.563523 0.277226
H23   H     H_    0.955860 0.770368 0.663341 0.219351
H24   H     H_    0.330420 0.223072 0.201652 0.126632
H25   H     H_    0.985562 0.851415 0.707029 0.242717
H26   H     H_    0.886026 0.248148 0.187589 0.114297
H27   H     H_    0.169610 0.723059 0.798394 0.126635
H28   H     H_    0.114027 0.248165 0.812378 0.114277
H29   H     H_    0.830406 0.723058 0.201640 0.126589
H30   H     H_    0.347090 0.046564 0.383196 0.123637
H31   H     H_    0.600181 0.924144 0.629726 0.096481
H32   H     H_    0.653013 0.046534 0.616802 0.123740
H33   H     H_    0.666682 0.772592 0.908160 0.135603
H34   H     H_    0.399808 0.924146 0.370280 0.096500
H35   H     H_    0.847054 0.546553 0.383199 0.123659
H36   H     H_    0.100202 0.424157 0.629714 0.096461
H37   H     H_    0.153020 0.546528 0.616802 0.123742
H38   H     H_    0.899775 0.424158 0.370298 0.096509
H39   H     H_    0.225367 0.098974 0.563824 0.199459
H40   H     H_    0.694533 0.855162 0.454496 0.193567
H41   H     H_    0.775686 0.098596 0.436068 0.199599
H42   H     H_    0.304920 0.855351 0.545613 0.193658
H43   H     H_    0.725018 0.598837 0.563868 0.199500
H44   H     H_    0.619818 0.249954 0.974147 0.131758
H45   H     H_    0.194381 0.355127 0.454518 0.193525
H46   H     H_    0.275720 0.598568 0.436060 0.199622
H47   H     H_    0.804829 0.355395 0.545643 0.193647
H48   H     H_    0.207590 0.725653 0.146266 0.179379
H49   H     H_    0.700697 0.326071 0.987623 0.159446
H50   H     H_    0.792474 0.725719 0.853707 0.179198
H51   H     H_    0.299013 0.325900 0.012833 0.159328
H52   H     H_    0.707606 0.225643 0.146249 0.179419
H53   H     H_    0.200721 0.826054 0.987586 0.159411
H54   H     H_    0.292435 0.225690 0.853746 0.179150
H55   H     H_    0.333279 0.772624 0.091931 0.135881
H56   H     H_    0.798922 0.825843 0.012968 0.159342
H57   H     H_    0.224353 0.038418 0.039048 0.089110
H58   H     H_    0.169665 0.949692 0.063366 0.078974
H59   H     H_    0.164057 0.976255 0.909064 0.247305
H60   H     H_    0.109618 0.047337 0.016415 0.205436
H61   H     H_    0.212528 0.069019 0.890501 0.283538
H62   H     H_    0.545870 0.997483 0.239638 0.113268
H63   H     H_    0.500827 0.088273 0.311350 0.045335
H64   H     H_    0.569073 0.069671 0.399962 0.262836
H65   H     H_    0.505945 0.986007 0.419725 0.200785
H66   H     H_    0.880203 0.749942 0.025871 0.131766
H67   H     H_    0.620881 0.982989 0.321602 0.283476
H68   H     H_    0.775681 0.038431 0.962209 0.089154
H69   H     H_    0.830158 0.949543 0.937465 0.078519
H70   H     H_    0.835533 0.975061 0.092121 0.246752
H71   H     H_    0.890031 0.046676 0.985510 0.205640
H72   H     H_    0.787001 0.067909 0.111529 0.284151
H73   H     H_    0.453819 0.997259 0.760655 0.113346
H74   H     H_    0.499205 0.087901 0.688684 0.044842
H75   H     H_    0.430883 0.069465 0.600115 0.262610
H76   H     H_    0.493801 0.985688 0.580514 0.200867
H77   H     H_    0.166677 0.272590 0.908162 0.135574
H78   H     H_    0.378854 0.982883 0.678644 0.283470
H79   H     H_    0.724349 0.538424 0.039110 0.089174
H80   H     H_    0.669655 0.449704 0.063407 0.078995
H81   H     H_    0.664047 0.476313 0.909110 0.247374
H82   H     H_    0.609596 0.547362 0.016504 0.205355
H83   H     H_    0.712501 0.569077 0.890603 0.283533
H84   H     H_    0.045943 0.497420 0.239570 0.113258
H85   H     H_    0.000813 0.588174 0.311343 0.045192
H86   H     H_    0.069072 0.569624 0.399953 0.262796
H87   H     H_    0.005995 0.485929 0.419677 0.200797
H88   H     H_    0.119810 0.749955 0.974154 0.131775
H89   H     H_    0.120934 0.482967 0.321557 0.283442
H90   H     H_    0.275675 0.538419 0.961789 0.089239
H91   H     H_    0.330211 0.449585 0.937215 0.078761
H92   H     H_    0.335649 0.475480 0.091764 0.246996
H93   H     H_    0.390151 0.546898 0.984878 0.205505
H94   H     H_    0.287160 0.568301 0.110846 0.283962
H95   H     H_    0.953821 0.497262 0.760648 0.113385
H96   H     H_    0.999207 0.587908 0.688688 0.044828
H97   H     H_    0.930899 0.569482 0.600101 0.262564
H98   H     H_    0.993811 0.485702 0.580501 0.200852
H99   H     H_    0.833274 0.272630 0.091940 0.136010
H100  H     H_    0.878864 0.482898 0.678622 0.283486
H101  H     H_    0.484179 0.701552 0.613974 0.211356
H102  H     H_    0.493740 0.770522 0.694007 0.072278
H103  H     H_    0.402051 0.688410 0.858464 0.238393
H104  H     H_    0.348545 0.715884 0.801003 0.237642
H105  H     H_    0.391190 0.619942 0.779248 0.253685
H106  H     H_    0.473639 0.229901 0.254251 0.104226
H107  H     H_    0.415280 0.201443 0.394082 0.100225
H108  H     H_    0.450993 0.328177 0.435747 0.277685
H109  H     H_    0.544142 0.271949 0.335735 0.219077
H110  H     H_    0.386066 0.748139 0.187563 0.114275
H111  H     H_    0.513950 0.352769 0.292324 0.242512
H112  H     H_    0.515353 0.704650 0.386638 0.210552
H113  H     H_    0.506888 0.770978 0.303115 0.071555
H114  H     H_    0.599223 0.685995 0.142241 0.237207
H115  H     H_    0.651821 0.716211 0.199890 0.236622
H116  H     H_    0.608945 0.620088 0.224933 0.254787
H117  H     H_    0.526490 0.228775 0.744757 0.104166
H118  H     H_    0.585119 0.200598 0.604759 0.100606
H119  H     H_    0.548609 0.327030 0.563595 0.277236
H120  H     H_    0.455792 0.270354 0.663390 0.219390
N1    N     N_R   0.408680 0.130810 0.995780 -0.064896
N2    N     N_R   0.578590 0.132790 0.846380 -0.056699
N3    N     N_R   0.578590 0.867210 0.846380 -0.052629
N4    N     N_R   0.421410 0.132790 0.153620 -0.056719
N5    N     N_R   0.921410 0.367210 0.153620 -0.052592
N6    N     N_R   0.078590 0.632790 0.846380 -0.056680
N7    N     N_R   0.078590 0.367210 0.846380 -0.052672
N8    N     N_R   0.921410 0.632790 0.153620 -0.056690
N9    N     N_R   0.403840 0.921910 0.935760 -0.105300
N10   N     N_R   0.596160 0.078090 0.064240 -0.117569
N11   N     N_R   0.596160 0.921910 0.064240 -0.105210
N12   N     N_R   0.591320 0.869190 0.004220 -0.072638
N13   N     N_R   0.403840 0.078090 0.935760 -0.117610
N14   N     N_R   0.903840 0.421910 0.935760 -0.105234
N15   N     N_R   0.096160 0.578090 0.064240 -0.117572
N16   N     N_R   0.096160 0.421910 0.064240 -0.105225
N17   N     N_R   0.903840 0.578090 0.935760 -0.117629
N18   N     N_R   0.426250 0.076100 0.213650 -0.074484
N19   N     N_R   0.573750 0.923900 0.786350 -0.050665
N20   N     N_R   0.573750 0.076100 0.786350 -0.074494
N21   N     N_R   0.426250 0.923900 0.213650 -0.050639
N22   N     N_R   0.926250 0.576100 0.213650 -0.074478
N23   N     N_R   0.591320 0.130810 0.004220 -0.064872
N24   N     N_R   0.073750 0.423900 0.786350 -0.050692
N25   N     N_R   0.073750 0.576100 0.786350 -0.074498
N26   N     N_R   0.926250 0.423900 0.213650 -0.050639
N27   N     N_R   0.408680 0.869190 0.995780 -0.072584
N28   N     N_R   0.908680 0.630810 0.995780 -0.064898
N29   N     N_R   0.091320 0.369190 0.004220 -0.072611
N30   N     N_R   0.091320 0.630810 0.004220 -0.064878
N31   N     N_R   0.908680 0.369190 0.995780 -0.072535
N32   N     N_R   0.421410 0.867210 0.153620 -0.052590
Ni1   Ni    Ni4+2 0.500000 0.131570 0.000000 0.194453
Ni2   Ni    Ni4+2 0.500000 0.868430 0.000000 0.199828
Ni3   Ni    Ni4+2 0.000000 0.631570 0.000000 0.194447
Ni4   Ni    Ni4+2 0.000000 0.368430 0.000000 0.199835
Ni5   Ni    Ni4+2 0.488900 0.000000 0.862310 0.203366
Ni6   Ni    Ni4+2 0.511100 0.000000 0.137690 0.203357
Ni7   Ni    Ni4+2 0.988900 0.500000 0.862310 0.203450
Ni8   Ni    Ni4+2 0.011100 0.500000 0.137690 0.203354
O1    O     O_3   0.295548 0.957787 0.914626 -0.626811
O2    O     O_3   0.364840 0.294006 0.358030 -0.616253
O3    O     O_3   0.446983 0.663898 0.334327 -0.617937
O4    O     O_3   0.634881 0.293464 0.641334 -0.615970
O5    O     O_3   0.053651 0.163750 0.666588 -0.619532
O6    O     O_3   0.864853 0.793852 0.358281 -0.616185
O7    O     O_3   0.946935 0.164017 0.334255 -0.618206
O8    O     O_3   0.134958 0.793464 0.641271 -0.615961
O9    O     O_3   0.631961 0.087403 0.191119 -0.624638
O10   O     O_3   0.704142 0.957493 0.086045 -0.626954
O11   O     O_3   0.368062 0.087417 0.808846 -0.624646
O12   O     O_3   0.795533 0.457806 0.914660 -0.626764
O13   O     O_3   0.131950 0.587404 0.191134 -0.624588
O14   O     O_3   0.204238 0.457592 0.085839 -0.626916
O15   O     O_3   0.868063 0.587418 0.808843 -0.624606
O16   O     O_3   0.553433 0.663694 0.666261 -0.618795

loop_
_geom_bond_atom_site_label_1
_geom_bond_atom_site_label_2
_ccdc_geom_bond_type
C105  C110  S    
C8    O16   S    
C83   C102  S    
C61   N22   A    
C19   C20   S    
C96   C105  S    
C54   O14   S    
C114  C115  S    
C12   O3    S    
C10   H107  S    
C114  H68   S    
C19   O6    S    
C1    H1    S    
C61   C82   A    
C3    H87   S    
C15   O4    S    
C39   C74   A    
N27   Ni2   S    
C48   O1    S    
C2    C84   S    
C114  H69   S    
C93   C110  S    
C63   C80   A    
C43   N5    A    
C23   H21   S    
C21   C22   S    
C92   O16   S    
C32   H50   S    
C34   H51   S    
C30   H48   S    
C66   H66   S    
N13   Ni5   S    
C16   H120  S    
C115  H70   S    
N9    N27   A    
C9    H105  S    
C97   O6    S    
C91   C107  S    
C117  H78   S    
C109  H57   S    
C85   H41   S    
N21   N32   A    
N3    Ni2   S    
C33   H33   S    
C44   H44   S    
C84   H40   S    
C77   H77   S    
C59   H32   S    
N17   N28   A    
C4    H91   S    
C87   H43   S    
C41   N3    A    
C49   O9    S    
N10   N23   A    
C14   H116  S    
C62   C81   A    
C111  H61   S    
C17   H5    S    
N25   Ni7   S    
C64   C79   A    
N26   Ni8   S    
C23   O8    S    
N3    N19   A    
C120  O13   S    
C29   C91   S    
C119  H82   S    
C55   N27   A    
C57   C78   A    
C4    C5    S    
C6    C7    S    
C118  O12   S    
C23   H20   S    
C90   H46   S    
C30   C36   D    
C47   N8    A    
C50   O10   S    
N4    Ni1   S    
C41   C76   A    
C66   C70   A    
C115  H71   S    
N14   N31   A    
C45   C80   A    
C12   H112  S    
C38   C67   S    
C46   N7    A    
C13   C85   S    
C36   H53   S    
C112  H63   S    
C120  H84   S    
C98   O7    S    
C58   C76   A    
C10   O2    S    
C17   O5    S    
C111  H60   S    
C93   O2    S    
C20   H11   S    
N5    N26   A    
C109  C111  S    
C110  F1    S    
C27   F6    S    
C1    N1    A    
C56   O15   S    
C38   H56   S    
C16   H3    S    
C96   O5    S    
C14   H114  S    
C99   N31   A    
C39   N32   A    
C63   N25   A    
C22   H18   S    
C26   C87   S    
C37   C65   S    
C58   N19   A    
C1    C65   A    
C18   H8    S    
C60   N21   A    
C43   H26   S    
C50   C67   A    
C28   F7    S    
C5    H94   S    
N16   N29   A    
N7    N24   A    
C81   C105  S    
C100  C108  S    
N16   Ni8   S    
N21   Ni6   S    
C32   C70   S    
C7    H97   S    
C120  H85   S    
C83   H39   S    
C2    C106  S    
C29   C104  S    
N11   Ni6   S    
C40   N2    A    
C8    H101  S    
C15   H118  S    
C19   H9    S    
C17   C18   S    
C83   C110  S    
C4    O14   S    
C55   C69   A    
N4    N18   A    
N29   Ni4   S    
C57   N18   A    
C4    H90   S    
N30   Ni3   S    
N2    Ni1   S    
C71   C77   A    
C47   H29   S    
C113  H64   S    
N8    Ni3   S    
C86   H42   S    
C94   O3    S    
C21   H16   S    
C30   C72   S    
N15   N30   A    
C46   H28   S    
C80   C108  S    
C27   C102  S    
C119  H83   S    
C53   N15   A    
C25   H23   S    
C52   O12   S    
C118  H79   S    
C53   O13   S    
C83   C96   S    
C27   C89   S    
C82   C106  S    
C89   C93   S    
C10   C11   S    
N17   Ni7   S    
C26   C97   S    
C112  H62   S    
C63   H37   S    
N19   Ni5   S    
C89   C105  S    
C24   C86   S    
C99   H99   S    
C57   H30   S    
C49   C68   A    
N20   Ni5   S    
C78   C102  S    
C34   C37   D    
C66   N28   A    
C21   O7    S    
C89   H45   S    
C100  O8    S    
C51   O11   S    
C116  H73   S    
C109  O1    S    
C36   C69   S    
N24   Ni7   S    
C51   N13   A    
N1    Ni1   S    
C29   C98   S    
C9    H104  S    
C84   C97   S    
C13   F3    S    
N23   Ni1   S    
C35   H52   S    
C51   C65   A    
C64   H38   S    
C62   H36   S    
C54   C71   A    
C116  O11   S    
N2    N20   A    
C24   C108  S    
C117  H76   S    
C86   C100  S    
C6    H96   S    
C45   N6    A    
C42   N4    A    
C87   C92   S    
C17   H4    S    
C27   C96   S    
N6    N25   A    
C90   C94   S    
C2    F2    S    
C48   N9    A    
C10   H106  S    
C119  H81   S    
C25   H25   S    
C64   N26   A    
N8    N22   A    
C98   C107  S    
C26   F5    S    
N18   Ni6   S    
C116  H74   S    
N9    Ni5   S    
C79   C107  S    
N31   Ni4   S    
C85   C104  S    
C92   C101  S    
C44   N23   A    
C97   C106  S    
N28   Ni3   S    
C13   C95   S    
C94   C103  S    
C75   C104  S    
C31   C35   D    
C52   N14   A    
C6    H95   S    
C16   H119  S    
C11   H108  S    
C40   H2    S    
N15   Ni8   S    
C113  H65   S    
C93   C102  S    
C109  H58   S    
C111  H59   S    
C40   C75   A    
N10   Ni6   S    
C58   H31   S    
C54   N16   A    
C20   H12   S    
C28   C103  S    
C37   H54   S    
C90   C108  S    
C14   H115  S    
C22   H19   S    
C12   H113  S    
C50   N11   A    
C114  O10   S    
C55   H55   S    
C28   C90   S    
C53   C72   A    
C11   H111  S    
C5    H93   S    
C48   C69   A    
C13   C107  S    
C3    H86   S    
C59   N20   A    
C31   H49   S    
N32   Ni2   S    
C26   C101  S    
C31   C73   S    
C5    H92   S    
C7    H100  S    
C43   C79   A    
C15   C16   S    
C24   F4    S    
C116  C117  S    
C47   C82   A    
C77   N29   A    
C118  C119  S    
C85   C98   S    
C8    H102  S    
C15   H117  S    
C8    C9    S    
N7    Ni4   S    
C18   H6    S    
C45   H27   S    
C32   C38   D    
C42   H24   S    
N5    Ni4   S    
N6    Ni3   S    
C28   C100  S    
N14   Ni7   S    
C84   C101  S    
C113  H67   S    
C86   C103  S    
C112  C113  S    
C72   C88   A    
C20   H14   S    
C21   H15   S    
C52   C73   A    
C6    O15   S    
C91   C95   S    
C25   H22   S    
C118  H80   S    
C41   H13   S    
C24   C94   S    
C46   C81   A    
C49   N10   A    
C60   H34   S    
C22   H17   S    
C3    H89   S    
C91   H47   S    
C18   H7    S    
C95   O4    S    
C2    C92   S    
C56   N17   A    
C12   C14   S    
C42   C78   A    
C56   C70   A    
C44   C68   A    
N11   N12   A    
C59   C75   A    
C95   C104  S    
C33   C67   A    
C76   C101  S    
C73   C99   A    
C88   H88   S    
C61   H35   S    
N22   Ni8   S    
N12   Ni2   S    
C7    H98   S    
C11   H109  S    
C115  H72   S    
C112  O9    S    
C9    H103  S    
C87   C106  S    
C88   N30   A    
C35   C68   S    
C19   H10   S    
C33   N12   A    
C60   C74   A    
C23   C25   S    
C3    C120  S    
C29   F8    S    
N1    N13   A    
C117  H75   S    
C34   C71   S    
C39   H110  S    
C62   N24   A    
C74   C103  S    
