data_str_m12_o9_o12_f0_bcu.sym.69
_audit_creation_date              2012-12-11T17:41:41-0500
_audit_creation_method            fapswitch 2.2
_symmetry_space_group_name_H-M    P1
_symmetry_Int_Tables_number       1
_space_group_crystal_system       triclinic
_cell_length_a                    15.515426
_cell_length_b                    14.834226
_cell_length_c                    14.783639
_cell_angle_alpha                 109.624887
_cell_angle_beta                  121.212742
_cell_angle_gamma                 59.292283
_cell_volume                      2490.25898398

loop_
_atom_site_label
_atom_site_type_symbol
_atom_type_description
_atom_site_fract_x
_atom_site_fract_y
_atom_site_fract_z
_atom_type_partial_charge
C1    C     C_R   0.748850 0.997899 0.792579 -0.119858
C2    C     C_R   0.155396 0.211092 0.967485 -0.126850
C3    C     C_R   0.676361 0.659386 0.839088 -0.169281
C4    C     C_R   0.260329 0.134024 0.976363 -0.163414
C5    C     C_R   0.691737 0.730924 0.931115 0.204742
C6    C     C_R   0.282812 0.026857 0.960850 0.229092
C7    C     C_R   0.800056 0.721219 0.003065 -0.106933
C8    C     C_R   0.198852 0.997574 0.933763 -0.089619
C9    C     C_R   0.890733 0.640875 0.983610 -0.162641
C10   C     C_R   0.094048 0.074772 0.924244 -0.153063
C11   C     C_R   0.874351 0.570440 0.892148 -0.098621
C12   C     C_R   0.195545 0.064646 0.227200 -0.149557
C13   C     C_R   0.072276 0.181521 0.941419 -0.119092
C14   C     C_R   0.589749 0.835671 0.047756 0.557315
C15   C     C_R   0.394798 0.905424 0.866483 0.576451
C16   C     C_R   0.243866 0.290857 0.491353 -0.119507
C17   C     C_R   0.801476 0.726267 0.561380 -0.139466
C18   C     C_R   0.491876 0.914765 0.059443 -0.184285
C19   C     C_R   0.496194 0.869532 0.863725 -0.195139
C20   C     C_R   0.391410 0.945601 0.964703 -0.214580
C21   C     C_R   0.593469 0.815831 0.949181 -0.203418
C22   C     C_2   0.150921 0.398226 0.616459 -0.214698
C23   C     C_R   0.212141 0.300196 0.567595 0.150391
C24   C     C_2   0.978734 0.654790 0.540389 -0.221985
C25   C     C_2   0.134411 0.491014 0.602078 -0.114430
C26   C     C_2   0.039486 0.584707 0.611723 -0.113812
C27   C     C_2   0.826506 0.135320 0.902254 -0.235622
C28   C     C_2   0.012998 0.053690 0.161931 -0.220920
C29   C     C_R   0.090490 0.738487 0.214681 -0.146143
C30   C     C_R   0.805909 0.111827 0.355925 -0.128987
C31   C     C_R   0.191669 0.666040 0.279892 -0.178223
C32   C     C_R   0.706653 0.200844 0.345981 -0.146473
C33   C     C_R   0.289036 0.635208 0.270534 0.114465
C34   C     C_R   0.863680 0.727061 0.520651 0.148731
C35   C     C_R   0.706247 0.287532 0.423693 0.115123
C36   C     C_R   0.283353 0.678433 0.195259 -0.146563
C37   C     C_R   0.807082 0.283925 0.510727 -0.183348
C38   C     C_R   0.181654 0.749837 0.129282 -0.088979
C39   C     C_R   0.906150 0.194770 0.520155 -0.092999
C40   C     C_R   0.592768 0.216728 0.487207 -0.150472
C41   C     C_R   0.405831 0.768703 0.443869 -0.147918
C42   C     C_R   0.085202 0.779035 0.138341 -0.111823
C43   C     C_R   0.905564 0.108823 0.442870 -0.084916
C44   C     C_R   0.400299 0.460099 0.337986 -0.241642
C45   C     C_R   0.502116 0.298457 0.427972 0.062188
C46   C     C_R   0.596681 0.480338 0.419250 -0.241916
C47   C     C_R   0.502046 0.377468 0.388067 0.054505
C48   C     C_R   0.495506 0.569903 0.394847 0.057490
C49   C     C_R   0.600745 0.382126 0.411875 0.031949
C50   C     C_R   0.396131 0.555621 0.336558 0.029610
C51   C     C_2   0.854215 0.111753 0.996170 -0.104393
C52   C     C_2   0.952499 0.121317 0.088150 -0.114417
C53   C     C_R   0.408100 0.980631 0.713052 -0.142330
C54   C     C_R   0.590349 0.953062 0.264557 -0.112365
C55   C     C_R   0.409580 0.288975 0.409424 -0.133830
C56   C     C_R   0.496689 0.673801 0.445837 0.052646
C57   C     C_R   0.590529 0.693763 0.515555 -0.123164
C58   C     C_R   0.590915 0.905716 0.787424 -0.153027
C59   C     C_R   0.405973 0.021510 0.192573 -0.160670
C60   C     C_R   0.242839 0.199187 0.584019 -0.151862
C61   C     C_R   0.801402 0.816569 0.468070 -0.141021
C62   C     C_R   0.749512 0.091082 0.701703 -0.144779
C63   C     C_R   0.195454 0.972349 0.317739 -0.130630
C64   C     C_R   0.775069 0.078384 0.802934 0.143193
C65   C     C_R   0.131139 0.027853 0.229758 0.153737
C66   C     C_3   0.666780 0.698760 0.140612 -0.258699
C67   C     C_R   0.499007 0.917647 0.792629 0.136291
C68   C     C_3   0.302518 0.825441 0.711714 -0.305756
C69   C     C_R   0.496069 0.961176 0.167450 0.134956
C70   C     C_R   0.767196 0.579892 0.819757 -0.127444
H1    H     H_    0.757468 0.966684 0.854458 0.089322
H2    H     H_    0.324000 0.157475 0.995394 0.114818
H3    H     H_    0.814364 0.776467 0.073159 0.132600
H4    H     H_    0.214653 0.915173 0.919694 0.108677
H5    H     H_    0.973929 0.633110 0.039132 0.134316
H6    H     H_    0.030132 0.051085 0.902954 0.130939
H7    H     H_    0.009151 0.585958 0.663979 0.126800
H8    H     H_    0.176211 0.495467 0.564387 0.126064
H9    H     H_    0.009948 0.652057 0.488033 0.130268
H10   H     H_    0.107807 0.394709 0.653438 0.128914
H11   H     H_    0.006244 0.832761 0.085908 0.098940
H12   H     H_    0.167103 0.123461 0.178790 0.101762
H13   H     H_    0.982347 0.039929 0.450324 0.100067
H14   H     H_    0.231548 0.352986 0.457597 0.088896
H15   H     H_    0.829368 0.676079 0.618399 0.086970
H16   H     H_    0.015830 0.762008 0.222247 0.111996
H17   H     H_    0.805575 0.045225 0.296098 0.106911
H18   H     H_    0.194252 0.634583 0.338037 0.108324
H19   H     H_    0.630113 0.202192 0.277956 0.114963
H20   H     H_    0.357336 0.655688 0.186737 0.111260
H21   H     H_    0.808865 0.349493 0.571766 0.104960
H22   H     H_    0.177498 0.782141 0.070752 0.109547
H23   H     H_    0.978154 0.008108 0.165495 0.128666
H24   H     H_    0.983421 0.192272 0.587479 0.115528
H25   H     H_    0.323316 0.452296 0.302631 0.120916
H26   H     H_    0.673076 0.486801 0.446909 0.123989
H27   H     H_    0.678917 0.191847 0.509234 0.119656
H28   H     H_    0.319383 0.784739 0.403523 0.122146
H29   H     H_    0.322112 0.998765 0.684534 0.164530
H30   H     H_    0.676021 0.914185 0.277716 0.152758
H31   H     H_    0.324730 0.330502 0.355143 0.085740
H32   H     H_    0.676093 0.638162 0.538916 0.093322
H33   H     H_    0.675978 0.853021 0.829467 0.113101
H34   H     H_    0.857362 0.184538 0.898567 0.127575
H35   H     H_    0.320168 0.040153 0.142630 0.125909
H36   H     H_    0.230220 0.177664 0.637801 0.103075
H37   H     H_    0.831178 0.848992 0.440277 0.098200
H38   H     H_    0.759392 0.147591 0.681332 0.104968
H39   H     H_    0.165377 0.946873 0.351987 0.096655
H40   H     H_    0.985535 0.168528 0.084498 0.131599
H41   H     H_    0.821836 0.064375 0.000675 0.125101
H42   H     H_    0.656345 0.643229 0.067018 0.141218
H43   H     H_    0.594889 0.730129 0.159245 0.143854
H44   H     H_    0.741799 0.653573 0.207122 0.175986
H45   H     H_    0.944730 0.508620 0.877315 0.101484
H46   H     H_    0.324247 0.764595 0.757129 0.139798
H47   H     H_    0.362662 0.796601 0.677848 0.149097
H48   H     H_    0.219877 0.837992 0.644122 0.175468
H49   H     H_    0.991054 0.241505 0.934058 0.103568
H50   H     H_    0.754460 0.525498 0.748686 0.109623
H51   H     H_    0.138271 0.293678 0.980104 0.111754
H52   H     H_    0.593903 0.665075 0.782197 0.116769
N1    N     N_R   0.705410 0.966550 0.689210 -0.044286
N2    N     N_R   0.556610 0.796750 0.548620 -0.037797
N3    N     N_R   0.556610 0.951620 0.703500 -0.042389
N4    N     N_R   0.443390 0.048380 0.296500 -0.043485
N5    N     N_R   0.294590 0.131500 0.522480 -0.041986
N6    N     N_R   0.705410 0.868500 0.477520 -0.042754
N7    N     N_R   0.705410 0.023370 0.632390 -0.041848
N8    N     N_R   0.294590 0.976630 0.367610 -0.042850
N9    N     N_R   0.294590 0.033450 0.310790 -0.044220
N10   N     N_R   0.294590 0.188320 0.465660 -0.043571
N11   N     N_R   0.705410 0.811680 0.534340 -0.043306
N12   N     N_R   0.556610 0.157790 0.497330 -0.038630
N13   N     N_R   0.443390 0.842210 0.502670 -0.041592
N14   N     N_R   0.443390 0.997080 0.657540 -0.049003
N15   N     N_R   0.556610 0.002920 0.342460 -0.050829
N16   N     N_R   0.443390 0.203250 0.451380 -0.037817
Ni1   Ni    Ni4+2 0.629830 0.882720 0.617850 0.212481
Ni2   Ni    Ni4+2 0.370170 0.117280 0.382150 0.209637
Ni3   Ni    Ni4+2 0.629830 0.013030 0.487540 0.214159
Ni4   Ni    Ni4+2 0.370170 0.986970 0.512460 0.208471
O1    O     O_3   0.682325 0.780672 0.131935 -0.643337
O2    O     O_3   0.296109 0.922080 0.775119 -0.625709

loop_
_geom_bond_atom_site_label_1
_geom_bond_atom_site_label_2
_ccdc_geom_bond_type
C63   C65   A    
N4    N15   A    
C12   N9    A    
C38   H22   S    
C29   C42   A    
C43   H13   S    
C14   C18   A    
N2    Ni1   S    
C41   N13   A    
C11   C70   A    
C47   C49   A    
C53   H29   S    
C59   N4    A    
C15   C19   A    
C57   H32   S    
C53   N14   A    
C46   C49   A    
N4    Ni2   S    
C1    H1    S    
C55   N16   A    
C17   H15   S    
C14   C21   A    
C19   C21   A    
C24   C26   D    
C38   C42   A    
C54   N15   A    
C62   H38   S    
C44   C50   A    
N1    Ni1   S    
C27   H34   S    
C16   H14   S    
C33   C36   A    
C56   C57   A    
C48   C56   S    
C63   N8    A    
C2    C13   A    
N5    N10   A    
N14   Ni4   S    
N9    Ni2   S    
C68   H48   S    
C10   H6    S    
N13   Ni4   S    
C70   H50   S    
C22   C25   D    
C35   C49   S    
C62   C64   A    
C31   C33   A    
C19   C67   S    
C11   H45   S    
N6    Ni3   S    
C44   C47   A    
C18   C69   S    
C48   C50   A    
N1    N7    A    
C62   N7    A    
C54   H30   S    
C40   C45   A    
C42   H11   S    
C53   C67   A    
C13   H49   S    
C27   C51   D    
C45   C47   S    
C23   C60   A    
C46   C48   A    
C26   H7    S    
C37   H21   S    
C39   H24   S    
C51   C52   S    
C32   C35   A    
C3    C70   A    
C4    C6    A    
C40   H27   S    
C5    C7    A    
C39   C43   A    
C66   O1    S    
C25   C26   S    
C40   N12   A    
C34   C61   A    
N3    Ni1   S    
C25   H8    S    
C28   H23   S    
N5    Ni4   S    
C63   H39   S    
C16   N10   A    
C2    C4    A    
C1    N1    A    
C41   C56   A    
C68   H47   S    
C24   H9    S    
C66   H43   S    
C32   H19   S    
C52   H40   S    
C15   C20   A    
C7    H3    S    
C8    H4    S    
C12   H12   S    
C59   H35   S    
C9    C11   A    
C29   H16   S    
N16   Ni2   S    
C59   C69   A    
N3    N14   A    
C8    C10   A    
C46   H26   S    
C68   H46   S    
N11   Ni1   S    
C16   C23   A    
C17   N11   A    
C30   C43   A    
C17   C34   A    
C1    C64   A    
C4    H2    S    
C60   H36   S    
C2    H51   S    
C36   H20   S    
C7    C9    A    
N15   Ni3   S    
C14   O1    S    
C51   H41   S    
C31   H18   S    
C66   H44   S    
N2    N13   A    
C35   C37   A    
C41   H28   S    
N8    Ni4   S    
C60   N5    A    
C3    C5    A    
C10   C13   A    
N12   N16   A    
C68   O2    S    
C6    C8    A    
C3    H52   S    
N10   Ni2   S    
C6    C20   S    
C12   C65   A    
C55   H31   S    
C36   C38   A    
C28   C65   S    
C33   C50   S    
C22   H10   S    
C29   C31   A    
C44   H25   S    
N6    N11   A    
N12   Ni3   S    
C30   C32   A    
C28   C52   D    
C54   C69   A    
N8    N9    A    
C61   N6    A    
C18   C20   A    
C61   H37   S    
C24   C34   S    
C27   C64   S    
C15   O2    S    
C58   C67   A    
N7    Ni3   S    
C45   C55   A    
C58   N3    A    
C37   C39   A    
C5    C21   S    
C22   C23   S    
C58   H33   S    
C9    H5    S    
C66   H42   S    
C30   H17   S    
C57   N2    A    
