data_str_m9_o2_o25_f0_sra.sym.36
_audit_creation_date              2012-12-11T16:33:23-0500
_audit_creation_method            fapswitch 2.2
_symmetry_space_group_name_H-M    P1
_symmetry_Int_Tables_number       1
_space_group_crystal_system       triclinic
_cell_length_a                    6.946017
_cell_length_b                    18.20946
_cell_length_c                    20.177625
_cell_angle_alpha                 68.391604
_cell_angle_beta                  90.675415
_cell_angle_gamma                 90.713682
_cell_volume                      2372.51840573

loop_
_atom_site_label
_atom_site_type_symbol
_atom_type_description
_atom_site_fract_x
_atom_site_fract_y
_atom_site_fract_z
_atom_type_partial_charge
O1    O     O_R   0.488960 0.443750 0.941980 -0.535417
O2    O     O_R   0.823890 0.406510 0.087590 -0.538940
O3    O     O_R   0.999680 0.556250 0.058020 -0.535768
C1    C     C_R   0.655477 0.382995 0.114591 0.694996
O4    O     O_R   0.818360 0.434410 0.944340 -0.540349
O5    O     O_R   0.994110 0.584350 0.913750 -0.535185
C2    C     C_R   0.648773 0.420367 0.923747 0.723930
O6    O     O_R   0.494530 0.415650 0.086250 -0.534937
O7    O     O_3   0.662590 0.549160 0.990130 -0.367062
V1    V     V_3+5 0.935320 0.490880 0.001830 1.425262
O8    O     O_R   0.324180 0.593490 0.912410 -0.539370
C3    C     C_R   0.155244 0.616496 0.884968 0.694899
O9    O     O_R   0.329720 0.565590 0.055660 -0.539391
C4    C     C_R   0.162151 0.579797 0.076053 0.722385
V2    V     V_3+5 0.435990 0.509120 0.998170 1.426164
O10   O     O_3   0.158850 0.450840 0.009870 -0.367206
C5    C     C_3   0.052717 0.704321 0.312277 -0.248051
C6    C     C_3   0.240320 0.683403 0.281566 -0.210176
H1    H     H_    0.326824 0.629199 0.306846 0.114774
H2    H     H_    0.985011 0.667397 0.363463 0.127352
C7    C     C_1   0.155986 0.625669 0.121415 -0.195440
C8    C     C_1   0.110395 0.874147 0.378626 -0.195575
C9    C     C_3   0.954845 0.728514 0.237616 -0.089858
C10   C     C_3   0.142613 0.708908 0.207454 0.074337
C11   C     C_3   0.030565 0.814028 0.219195 0.139081
C12   C     C_3   0.126102 0.790302 0.293133 0.039025
C13   C     C_3   0.217200 0.794635 0.187970 -0.201861
C14   C     C_3   0.309935 0.769519 0.262863 0.506505
C15   C     C_1   0.150248 0.663452 0.159941 -0.030142
C16   C     C_1   0.117060 0.836167 0.340328 -0.052338
H3    H     H_    0.286533 0.831735 0.137162 0.116794
H4    H     H_    0.807279 0.711252 0.226934 0.138264
C17   C     C_R   0.213298 0.773294 0.881978 -0.133769
C18   C     C_R   0.236066 0.847207 0.885225 -0.180992
C19   C     C_R   0.207284 0.913995 0.825144 -0.090525
C20   C     C_R   0.156168 0.909239 0.758895 0.113108
C21   C     C_R   0.147592 0.832126 0.752879 0.002703
C22   C     C_R   0.169385 0.763703 0.817144 0.057554
C23   C     C_R   0.116585 0.819597 0.686920 -0.166885
C24   C     C_R   0.097933 0.741382 0.687324 0.081056
C25   C     C_R   0.109812 0.675205 0.752202 0.045839
C26   C     C_R   0.145370 0.686296 0.816924 -0.158577
C27   C     C_R   0.068362 0.727509 0.623279 -0.188045
C28   C     C_R   0.050289 0.651219 0.623248 -0.121205
C29   C     C_R   0.061380 0.585510 0.687171 0.191389
C30   C     C_R   0.090383 0.598208 0.750892 -0.210251
H5    H     H_    0.232346 0.723537 0.931471 0.103965
H6    H     H_    0.272475 0.852827 0.935501 0.119889
H7    H     H_    0.223240 0.969675 0.832243 0.125068
H8    H     H_    0.059346 0.775390 0.572017 0.109472
H9    H     H_    0.027962 0.644643 0.572605 0.121940
H10   H     H_    0.099795 0.546572 0.799563 0.103355
H11   H     H_    0.621298 0.377118 0.421366 0.127072
C31   C     C_R   0.617504 0.094856 0.253373 -0.143238
C32   C     C_R   0.621641 0.080836 0.190008 -0.120877
C33   C     C_R   0.633079 0.143666 0.125000 -0.120378
C34   C     C_R   0.640640 0.221011 0.122859 -0.133845
C35   C     C_R   0.637027 0.237059 0.186322 0.074335
C36   C     C_R   0.624686 0.172823 0.252999 0.053913
C37   C     C_R   0.647213 0.315561 0.184073 -0.156433
C38   C     C_R   0.646313 0.330098 0.248355 0.018385
C39   C     C_R   0.620131 0.266591 0.315224 -0.025797
C40   C     C_R   0.616785 0.187169 0.317543 -0.191372
C41   C     C_R   0.670863 0.407938 0.246869 -0.142082
C42   C     C_R   0.667816 0.423677 0.309103 -0.203074
C43   C     C_R   0.630263 0.363356 0.373656 -0.187958
C44   C     C_R   0.596631 0.285849 0.377205 0.434902
H12   H     H_    0.607365 0.043857 0.302460 0.101437
H13   H     H_    0.615148 0.020882 0.191362 0.126433
H14   H     H_    0.636134 0.132438 0.075934 0.111611
H15   H     H_    0.649880 0.267960 0.070997 0.089121
H16   H     H_    0.695479 0.457536 0.197632 0.116546
H17   H     H_    0.689863 0.483471 0.306990 0.133755
O11   O     O_R   0.770540 0.084530 0.414050 -0.540426
O12   O     O_R   0.445710 0.065660 0.555720 -0.544060
O13   O     O_R   0.270420 0.915650 0.586190 -0.540018
C45   C     C_R   0.614915 0.079349 0.576734 0.787295
O14   O     O_R   0.441140 0.093540 0.412470 -0.529657
O15   O     O_R   0.265820 0.943740 0.441930 -0.534046
C46   C     C_R   0.609741 0.118494 0.386422 0.801051
O16   O     O_R   0.775150 0.056440 0.558310 -0.542174
O17   O     O_3   0.602370 0.950960 0.510050 -0.370786
V3    V     V_3+5 0.329450 0.009140 0.498150 1.415145
O18   O     O_R   0.935790 0.934280 0.444060 -0.540819
C47   C     C_R   0.103578 0.920130 0.423819 0.727960
O19   O     O_R   0.940370 0.906390 0.587310 -0.542198
C48   C     C_R   0.108758 0.886028 0.616633 0.676016
V4    V     V_3+5 0.828810 0.990710 0.501460 1.413249
O20   O     O_3   0.105780 0.049100 0.489960 -0.374409
C49   C     C_3   0.637158 0.327826 0.710071 -0.142721
C50   C     C_3   0.475034 0.270083 0.706379 -0.134436
H18   H     H_    0.347388 0.286122 0.670428 0.106333
H19   H     H_    0.642650 0.392015 0.677638 0.119511
H20   H     H_    0.335703 0.220998 0.821419 0.106162
C51   C     C_1   0.623698 0.125288 0.622020 -0.168049
C52   C     C_1   0.638545 0.374777 0.878062 -0.198737
C53   C     C_3   0.790577 0.266481 0.710485 -0.131766
C54   C     C_3   0.628538 0.209397 0.707434 0.170040
C55   C     C_3   0.784194 0.230494 0.793036 -0.132694
C56   C     C_3   0.630746 0.291215 0.792023 0.171110
C57   C     C_3   0.622078 0.172776 0.789349 -0.149267
C58   C     C_3   0.468658 0.234098 0.788954 -0.138290
C59   C     C_1   0.626880 0.163384 0.660325 -0.074011
C60   C     C_1   0.633637 0.337036 0.839398 -0.074168
H21   H     H_    0.615932 0.108554 0.821677 0.107136
H22   H     H_    0.911901 0.214401 0.828939 0.105129
H23   H     H_    0.923545 0.279160 0.678052 0.102809
C61   C     C_3   0.102775 0.985812 0.697719 -0.352060
C62   C     C_3   0.086724 0.060908 0.714831 -0.794466
H24   H     H_    0.979312 0.052650 0.757409 0.230251
H25   H     H_    0.229073 0.078058 0.730588 0.224060
H26   H     H_    0.038542 0.110426 0.666323 0.227707
H27   H     H_    0.212740 0.999047 0.655837 0.199924
H28   H     H_    0.959644 0.977030 0.676802 0.188497
O21   O     O_3   0.536391 0.230292 0.441278 -0.574577
C63   C     C_3   0.340370 0.244090 0.450548 -0.214195
H29   H     H_    0.249324 0.238626 0.406758 0.138366
H30   H     H_    0.319198 0.302711 0.454660 0.113852
H31   H     H_    0.288994 0.199277 0.501231 0.170613
O22   O     O_3   0.496783 0.795266 0.272644 -0.561498
C64   C     C_3   0.562639 0.751774 0.342271 -0.281913
H32   H     H_    0.596299 0.690172 0.348190 0.130662
H33   H     H_    0.458154 0.752019 0.383528 0.144363
H34   H     H_    0.697717 0.779541 0.351852 0.171790
C65   C     C_3   0.913045 0.889109 0.184653 -0.333205
C66   C     C_3   0.819621 0.892209 0.114929 -0.742030
H35   H     H_    0.931215 0.889797 0.076820 0.219533
H36   H     H_    0.717257 0.842006 0.124844 0.237491
H37   H     H_    0.738908 0.948196 0.090785 0.208925
H38   H     H_    0.799492 0.891293 0.222080 0.216445
H39   H     H_    0.009158 0.941319 0.174200 0.172661
C67   C     C_3   0.044931 0.500734 0.691133 -0.353210
C68   C     C_3   0.021898 0.490400 0.619601 -0.799183
H40   H     H_    0.886078 0.517817 0.592717 0.222910
H41   H     H_    0.146858 0.516832 0.584769 0.225933
H42   H     H_    0.015673 0.426464 0.628754 0.218704
H43   H     H_    0.176315 0.468511 0.717868 0.181325
H44   H     H_    0.919602 0.472084 0.724954 0.181868

loop_
_geom_bond_atom_site_label_1
_geom_bond_atom_site_label_2
_ccdc_geom_bond_type
C32   C33   A    
C57   C58   S    
C20   C61   S    
C25   C26   A    
C19   C20   A    
C10   C13   S    
C23   C48   S    
C1    O6    A    
C53   C54   S    
C49   C50   S    
C29   C30   A    
C33   C34   A    
C2    C52   S    
C66   H35   S    
C39   C44   A    
C6    C10   S    
C5    C12   S    
C4    C7    S    
C20   C21   A    
C22   C26   A    
C62   H25   S    
O5    C3    A    
O19   V4    S    
C31   H12   S    
C67   H44   S    
O21   C63   S    
C30   H10   S    
C56   C60   S    
C5    H2    S    
C42   H17   S    
C61   C62   S    
C18   C19   A    
C8    C47   S    
C61   H28   S    
C11   C65   S    
C10   C15   S    
C64   H34   S    
C3    C26   S    
O8    V2    S    
O14   V3    S    
C24   C27   A    
C67   C68   S    
C19   H7    S    
C68   H42   S    
C25   C30   A    
O1    V2    S    
O7    V1    S    
C49   C53   S    
C31   C36   A    
C9    C11   S    
C43   C44   A    
O11   C46   A    
O9    C4    A    
C65   H38   S    
O13   V3    S    
C49   C56   S    
C53   C55   S    
C51   C59   T    
C17   C18   A    
C40   C46   S    
C57   H21   S    
V3    O20   S    
V2    O10   S    
C13   H3    S    
C6    C14   S    
O18   C47   A    
C14   O22   S    
C62   H26   S    
C23   C24   A    
O4    C2    A    
O19   C48   A    
C6    H1    S    
C66   H37   S    
C35   C36   A    
C7    C15   T    
C45   C51   S    
C37   C38   A    
C61   H27   S    
C38   C41   A    
O2    C1    A    
C27   C28   A    
C21   C22   A    
C65   H39   S    
C55   C56   S    
C45   O16   A    
C9    C10   S    
C1    C37   S    
C39   C40   A    
C56   C58   S    
C5    C6    S    
C5    C9    S    
C34   H15   S    
H11   C43   S    
O12   C45   A    
O13   C48   A    
C64   H32   S    
C32   H13   S    
O3    C4    A    
C28   H9    S    
C24   C25   A    
C55   C57   S    
C12   C16   S    
O6    V2    S    
C33   H14   S    
C52   C60   T    
C68   H40   S    
C17   H5    S    
C18   H6    S    
C42   C43   A    
C50   C58   S    
O2    V1    S    
C50   H18   S    
C28   C29   A    
C49   H19   S    
C55   H22   S    
C31   C32   A    
C66   H36   S    
C8    C16   T    
O1    C2    A    
C12   C14   S    
O18   V4    S    
O5    V1    S    
O8    C3    A    
C27   H8    S    
C11   C13   S    
C54   C57   S    
C36   C40   A    
C17   C22   A    
C63   H31   S    
C41   C42   A    
O9    V2    S    
C11   C12   S    
O4    V1    S    
C21   C23   A    
O3    V1    S    
V1    O10   S    
C62   H24   S    
C9    H4    S    
O15   V3    S    
O12   V3    S    
C34   C35   A    
C65   C66   S    
O17   V4    S    
O15   C47   A    
C63   H30   S    
C63   H29   S    
O14   C46   A    
C41   H16   S    
C50   C54   S    
O7    V2    S    
C38   C39   A    
C44   O21   S    
C64   H33   S    
O16   V4    S    
C53   H23   S    
V4    O20   S    
H20   C58   S    
C29   C67   S    
O17   V3    S    
C13   C14   S    
C68   H41   S    
O22   C64   S    
C67   H43   S    
O11   V4    S    
C35   C37   A    
C54   C59   S    
