data_str_m9_o11_o16_f0_sra.sym.138
_audit_creation_date              2012-12-11T14:17:30-0500
_audit_creation_method            fapswitch 2.2
_symmetry_space_group_name_H-M    P1
_symmetry_Int_Tables_number       1
_space_group_crystal_system       triclinic
_cell_length_a                    6.94771
_cell_length_b                    13.742068
_cell_length_c                    20.438471
_cell_angle_alpha                 102.533217
_cell_angle_beta                  90.483416
_cell_angle_gamma                 90.43943
_cell_volume                      1904.72275035

loop_
_atom_site_label
_atom_site_type_symbol
_atom_type_description
_atom_site_fract_x
_atom_site_fract_y
_atom_site_fract_z
_atom_type_partial_charge
O1    O     O_R   0.506860 0.599390 0.449240 -0.538826
O2    O     O_R   0.180220 0.594600 0.586780 -0.537856
O3    O     O_R   0.004500 0.400610 0.550760 -0.542592
C1    C     C_R   0.349549 0.615204 0.613706 0.820386
O4    O     O_R   0.177490 0.611290 0.451970 -0.531617
O5    O     O_R   0.001750 0.417420 0.414990 -0.549503
C2    C     C_R   0.346825 0.637900 0.435920 0.859976
O6    O     O_R   0.509610 0.582580 0.585010 -0.541544
O7    O     O_3   0.337420 0.436370 0.488020 -0.388113
V1    V     V_3+5 0.064680 0.511800 0.502220 1.504240
O8    O     O_R   0.671710 0.405400 0.413220 -0.547672
C3    C     C_R   0.839063 0.385005 0.386220 0.741954
O9    O     O_R   0.674440 0.388710 0.548030 -0.548448
C4    C     C_R   0.843124 0.363467 0.565519 0.705794
V2    V     V_3+5 0.564010 0.488200 0.497780 1.490942
O10   O     O_3   0.841140 0.563630 0.511980 -0.358854
C5    C     C_R   0.835860 0.116746 0.614290 -0.075389
H1    H     H_    0.806449 0.166569 0.522620 0.178792
H2    H     H_    0.868235 0.991981 0.694850 0.148202
H3    H     H_    0.826940 0.038921 0.588829 0.189637
C6    C     C_R   0.850023 0.289516 0.607264 -0.113804
C7    C     C_R   0.829524 0.313722 0.931158 -0.184028
C8    C     C_R   0.800483 0.389732 0.896606 0.336618
C9    C     C_R   0.803487 0.367140 0.826361 -0.209024
C10   C     C_R   0.847459 0.270346 0.789490 0.052586
C11   C     C_R   0.865182 0.192856 0.825488 0.048734
C12   C     C_R   0.859204 0.246316 0.717697 0.051129
C13   C     C_R   0.853435 0.144144 0.684213 0.062265
C14   C     C_R   0.866577 0.069542 0.720574 -0.133907
C15   C     C_R   0.879927 0.093506 0.789955 -0.178545
C16   C     C_R   0.878221 0.318835 0.677481 0.215505
C17   C     C_R   0.825983 0.189125 0.576478 -0.168417
C18   C     C_R   0.859017 0.215749 0.896414 -0.135382
H4    H     H_    0.820227 0.329977 0.985341 0.110358
H5    H     H_    0.761339 0.425552 0.801742 0.153443
H6    H     H_    0.893937 0.032974 0.815722 0.143835
C19   C     C_2   0.002490 0.291017 0.284480 -0.075769
C20   C     C_2   0.839521 0.321635 0.317708 -0.218470
H7    H     H_    0.140277 0.310851 0.309247 0.124276
H8    H     H_    0.700150 0.303359 0.293852 0.128150
C21   C     C_2   0.009847 0.232135 0.214177 -0.116263
C22   C     C_2   0.858258 0.183907 0.180195 -0.246613
H9    H     H_    0.149149 0.226857 0.190461 0.109259
H10   H     H_    0.717341 0.189809 0.202814 0.145406
C23   C     C_2   0.195527 0.778285 0.784397 0.340904
C24   C     C_2   0.355301 0.806722 0.822574 -0.377619
H11   H     H_    0.490368 0.771049 0.806556 0.103359
C25   C     C_2   0.206344 0.701361 0.720102 -0.190187
C26   C     C_2   0.360523 0.685330 0.679725 -0.289237
H12   H     H_    0.076070 0.658642 0.703706 0.147014
H13   H     H_    0.493551 0.726329 0.693554 0.143964
C27   C     C_R   0.478980 0.874965 0.387513 -0.080518
H14   H     H_    0.516018 0.950493 0.412341 0.229979
C28   C     C_R   0.362926 0.713410 0.395960 -0.198182
C29   C     C_R   0.312434 0.692464 0.073364 -0.178372
C30   C     C_R   0.323607 0.613902 0.105548 -0.124002
C31   C     C_R   0.366578 0.631869 0.173615 -0.149752
C32   C     C_R   0.389647 0.729660 0.212533 0.051839
C33   C     C_R   0.409881 0.808523 0.177622 -0.018966
C34   C     C_R   0.401313 0.751592 0.284443 -0.046994
C35   C     C_R   0.480545 0.845657 0.317313 -0.131544
C36   C     C_R   0.554064 0.911481 0.279694 0.371509
C37   C     C_R   0.490893 0.900634 0.212856 0.112638
C38   C     C_R   0.337149 0.685559 0.325659 0.219726
C39   C     C_R   0.426084 0.809378 0.426991 0.307037
C40   C     C_R   0.360425 0.789125 0.107594 -0.052459
H15   H     H_    0.278137 0.676936 0.020249 0.097230
H16   H     H_    0.391276 0.567476 0.193805 0.149445
H17   H     H_    0.301564 0.538239 0.077362 0.122101
O11   O     O_R   0.203230 0.917310 0.915020 -0.529719
O12   O     O_R   0.535500 0.888690 0.048040 -0.532575
O13   O     O_R   0.711080 0.082610 0.085000 -0.541071
C41   C     C_R   0.367475 0.864783 0.066804 0.760711
O14   O     O_R   0.532630 0.905370 0.913230 -0.548204
O15   O     O_R   0.708190 0.099410 0.949230 -0.538164
C42   C     C_R   0.362636 0.881885 0.887125 0.759884
O16   O     O_R   0.206120 0.900510 0.050790 -0.549298
O17   O     O_3   0.375360 0.063570 0.011990 -0.373876
V3    V     V_3+5 0.648170 0.988200 0.997780 1.428052
O18   O     O_R   0.038240 0.111390 0.951940 -0.539759
C43   C     C_R   0.869277 0.137723 0.935287 0.707717
O19   O     O_R   0.041120 0.094710 0.086750 -0.546543
C44   C     C_R   0.872590 0.117527 0.112878 0.718326
V4    V     V_3+5 0.148810 0.011930 0.002180 1.423900
O20   O     O_3   0.871750 0.936430 0.988010 -0.375827
N1    N     N_2   0.011981 0.817926 0.807081 -0.500104
H18   H     H_    0.966995 0.799510 0.850851 0.262132
C45   C     C_3   0.859407 0.813363 0.757911 -0.546707
H19   H     H_    0.746762 0.867927 0.778467 0.198425
H20   H     H_    0.794657 0.737448 0.746017 0.170016
H21   H     H_    0.915023 0.832161 0.711372 0.230600
S1    S     S_3+6 0.438853 0.849539 0.515565 -0.003033
O21   O     O_2   0.609460 0.802072 0.541315 -0.325959
O22   O     O_2   0.460890 0.960973 0.535918 -0.335463
O23   O     O_3   0.238273 0.814498 0.550162 -0.499871
H22   H     H_    0.131344 0.845535 0.529919 0.345815
S2    S     S_3+6 0.736174 0.002071 0.313984 -0.024232
O24   O     O_2   0.646946 0.103348 0.333243 -0.332731
O25   O     O_2   0.832612 0.978305 0.374719 -0.328233
O26   O     O_3   0.908897 0.004850 0.257303 -0.516267
H23   H     H_    0.958361 0.935875 0.245685 0.320269
N2    N     N_2   0.227809 0.596924 0.299720 -0.527364
H24   H     H_    0.125733 0.599206 0.263199 0.265536
C46   C     C_3   0.321252 0.502114 0.297619 -0.580373
H25   H     H_    0.281863 0.448200 0.250509 0.173544
H26   H     H_    0.272647 0.470806 0.340206 0.213301
H27   H     H_    0.480662 0.510656 0.300341 0.186448
N3    N     N_2   0.511401 0.981989 0.181143 -0.515106
H28   H     H_    0.645376 0.014067 0.185470 0.308074
C47   C     C_3   0.358936 0.053949 0.194806 -0.438043
H29   H     H_    0.381093 0.110108 0.163949 0.174721
H30   H     H_    0.359373 0.092088 0.248563 0.229940
H31   H     H_    0.217389 0.016823 0.181283 0.211915
N4    N     N_2   0.944464 0.417604 0.706004 -0.547522
H32   H     H_    0.894229 0.472750 0.683404 0.237327
C48   C     C_3   0.149013 0.425779 0.720291 -0.530627
H33   H     H_    0.184663 0.502555 0.748084 0.183784
H34   H     H_    0.231363 0.409549 0.672839 0.194459
H35   H     H_    0.192691 0.373348 0.752020 0.212328
N5    N     N_2   0.755917 0.487984 0.932276 -0.520362
H36   H     H_    0.699076 0.533532 0.903113 0.245493
C49   C     C_3   0.904826 0.537444 0.977761 -0.544198
H37   H     H_    0.855379 0.612722 0.003231 0.201675
H38   H     H_    0.037961 0.545711 0.949605 0.188442
H39   H     H_    0.936984 0.495040 0.016930 0.198635

loop_
_geom_bond_atom_site_label_1
_geom_bond_atom_site_label_2
_ccdc_geom_bond_type
C39   S1    S    
C29   C30   A    
C21   C22   D    
O23   H22   S    
C1    O6    A    
S2    O26   S    
C46   H26   S    
N4    H32   S    
C28   C39   A    
C23   C24   D    
C48   H33   S    
C38   N2    S    
C6    C16   A    
C30   H17   S    
C36   C37   A    
O15   V3    S    
O14   C42   A    
C4    C6    S    
C13   C14   A    
C19   C20   D    
O13   V3    S    
C27   C35   A    
C33   C40   A    
O5    C3    A    
N1    C45   S    
C32   C34   A    
V2    O10   S    
C5    H3    S    
N3    H28   S    
C47   H29   S    
S1    O21   D    
O8    V2    S    
N3    C47   S    
C26   H13   S    
C8    C9    A    
O1    V2    S    
O11   V4    S    
O7    V1    S    
C16   N4    S    
O18   V4    S    
C25   H12   S    
O1    C2    A    
O9    C4    A    
C3    C20   S    
C21   H9    S    
C35   C36   A    
C22   H10   S    
C24   C42   S    
C46   H25   S    
S2    O25   D    
N5    C49   S    
S2    O24   D    
C7    C8    A    
C7    H4    S    
C6    C17   A    
C9    H5    S    
C12   C16   A    
C9    C10   A    
C8    N5    S    
O12   C41   A    
O17   V3    S    
O15   C43   A    
O16   V4    S    
C10   C11   A    
C40   C41   S    
S1    O23   S    
O12   V3    S    
C34   C35   A    
O2    C1    A    
C14   C15   A    
C36   S2    S    
C11   C18   A    
N4    C48   S    
C45   H21   S    
S1    O22   D    
V4    O20   S    
N2    C46   S    
C47   H31   S    
O3    C4    A    
C25   C26   D    
C45   H20   S    
C11   C15   A    
O6    V2    S    
O19   V4    S    
O14   V3    S    
O9    V2    S    
O11   C42   A    
H1    C17   S    
C30   C31   A    
C31   H16   S    
C49   H38   S    
O2    V1    S    
V3    O20   S    
C29   C40   A    
C27   H14   S    
O4    C2    A    
C23   C25   S    
C7    C18   A    
C24   H11   S    
N1    H18   S    
C5    C13   A    
C22   C44   S    
O18   C43   A    
O5    V1    S    
C29   H15   S    
O8    C3    A    
C10   C12   A    
C33   C37   A    
C48   H35   S    
C15   H6    S    
C1    C26   S    
C34   C38   A    
C49   H39   S    
C23   N1    S    
C32   C33   A    
O4    V1    S    
C19   H7    S    
O3    V1    S    
V1    O10   S    
C20   H8    S    
C31   C32   A    
C28   C38   A    
O26   H23   S    
C48   H34   S    
C19   C21   S    
N2    H24   S    
C47   H30   S    
O13   C44   A    
O17   V4    S    
C45   H19   S    
O19   C44   A    
C12   C13   A    
C49   H37   S    
C5    C17   A    
C41   O16   A    
N5    H36   S    
C2    C28   S    
C37   N3    S    
C18   C43   S    
C46   H27   S    
C27   C39   A    
O7    V2    S    
H2    C14   S    
