data_str_m3_o14_o14_f0_pcu.sym.94
_audit_creation_date              2012-12-10T17:41:04-0500
_audit_creation_method            fapswitch 2.2
_symmetry_space_group_name_H-M    P1
_symmetry_Int_Tables_number       1
_space_group_crystal_system       triclinic
_cell_length_a                    14.621686
_cell_length_b                    15.53154
_cell_length_c                    10.039441
_cell_angle_alpha                 90.466347
_cell_angle_beta                  92.355238
_cell_angle_gamma                 89.93761
_cell_volume                      2277.92785584

loop_
_atom_site_label
_atom_site_type_symbol
_atom_type_description
_atom_site_fract_x
_atom_site_fract_y
_atom_site_fract_z
_atom_type_partial_charge
Br1   Br    Br    0.138783 0.914210 0.103969 -0.523797
Br2   Br    Br    0.636126 0.426703 0.108610 -0.566653
C1    C     C_R   0.376284 0.884081 0.498055 0.852870
C2    C     C_R   0.699929 0.232938 0.393335 -0.173186
C3    C     C_R   0.179662 0.248554 0.425822 -0.163238
C4    C     C_R   0.267516 0.674802 0.457540 -0.200257
C5    C     C_R   0.680080 0.808972 0.503230 -0.053510
C6    C     C_R   0.687992 0.187650 0.510956 -0.085257
C7    C     C_R   0.194158 0.322432 0.501646 -0.056915
C8    C     C_R   0.181174 0.689899 0.504844 -0.040403
C9    C     C_R   0.328962 0.978389 0.118699 0.444243
C10   C     C_R   0.828632 0.480244 0.118825 0.423500
C11   C     C_R   0.252705 0.953432 0.036077 0.174299
C12   C     C_R   0.387431 0.125425 0.499776 0.988962
C13   C     C_R   0.751723 0.456627 0.037044 0.163926
C14   C     C_R   0.256347 0.961332 0.900682 -0.253346
C15   C     C_R   0.756092 0.460249 0.901004 -0.254669
C16   C     C_R   0.336491 0.986595 0.845686 -0.148446
C17   C     C_R   0.836780 0.483805 0.845801 -0.143005
C18   C     C_R   0.418680 0.992918 0.921308 0.012519
C19   C     C_R   0.918883 0.490923 0.921404 0.003689
C20   C     C_R   0.417282 0.990578 0.064622 0.062610
C21   C     C_R   0.917381 0.489710 0.064773 0.055841
C22   C     C_R   0.578122 0.005469 0.077115 -0.096130
C23   C     C_R   0.887897 0.374625 0.498119 0.995307
C24   C     C_R   0.077756 0.508898 0.077156 -0.084246
C25   C     C_R   0.620026 0.120474 0.503255 0.912064
C26   C     C_R   0.619062 0.879963 0.501268 0.836316
C27   C     C_R   0.120129 0.619047 0.501859 0.818461
C28   C     C_R   0.121331 0.382316 0.500968 0.885170
C29   C     C_R   0.578992 0.003221 0.935531 0.449883
C30   C     C_R   0.078553 0.508061 0.935589 0.473951
C31   C     C_R   0.429270 0.292368 0.649701 0.450891
C32   C     C_R   0.178643 0.927098 0.566192 0.393722
C33   C     C_R   0.684072 0.575221 0.584305 0.399413
C34   C     C_R   0.875840 0.615274 0.498334 0.871980
C35   C     C_R   0.904444 0.237135 0.701019 0.462792
C36   C     C_R   0.441274 0.371451 0.717833 -0.222203
C37   C     C_R   0.090227 0.937430 0.611680 -0.110270
C38   C     C_R   0.601084 0.567082 0.646920 -0.094273
C39   C     C_R   0.889012 0.201024 0.825819 -0.250767
C40   C     C_R   0.543998 0.637352 0.661828 -0.225242
C41   C     C_R   0.802264 0.172393 0.854411 -0.141284
C42   C     C_R   0.375590 0.435451 0.706477 -0.148148
C43   C     C_R   0.032496 0.867639 0.622562 -0.218200
C44   C     C_R   0.568945 0.716927 0.613470 -0.188514
C45   C     C_R   0.246744 0.187859 0.422456 -0.166700
C46   C     C_R   0.732908 0.171363 0.755102 -0.162938
C47   C     C_R   0.295576 0.420684 0.631233 -0.169361
C48   C     C_R   0.062214 0.786174 0.587560 -0.170200
C49   C     C_R   0.654450 0.728768 0.555129 0.067673
C50   C     C_R   0.748909 0.200026 0.624410 0.004368
C51   C     C_R   0.277948 0.339732 0.570486 0.014127
C52   C     C_R   0.151705 0.772541 0.543162 0.076700
C53   C     C_R   0.346079 0.275341 0.574523 0.042806
C54   C     C_R   0.212535 0.842754 0.534067 -0.001070
C55   C     C_R   0.714998 0.658409 0.544423 -0.017445
C56   C     C_R   0.328376 0.741311 0.452449 -0.181239
C57   C     C_R   0.830268 0.244919 0.605638 0.054368
C58   C     C_R   0.327642 0.198365 0.499012 -0.092116
C59   C     C_R   0.302969 0.823627 0.492890 -0.070778
C60   C     C_R   0.802483 0.675513 0.492959 -0.100427
C61   C     C_R   0.832933 0.298735 0.493538 -0.102588
C62   C     C_R   0.824378 0.755085 0.439926 -0.192633
C63   C     C_R   0.770122 0.290249 0.386327 -0.185210
C64   C     C_R   0.762910 0.821276 0.443504 -0.195997
H1    H     H_    0.233132 0.130639 0.363783 0.177032
H2    H     H_    0.065597 0.001065 0.637037 0.175054
H3    H     H_    0.578608 0.504471 0.678303 0.151774
H4    H     H_    0.943625 0.196692 0.901656 0.147114
H5    H     H_    0.478604 0.629613 0.707020 0.164809
H6    H     H_    0.788995 0.149304 0.953247 0.185874
H7    H     H_    0.387078 0.497129 0.755196 0.169352
H8    H     H_    0.963813 0.876846 0.656557 0.177400
H9    H     H_    0.519987 0.768445 0.622078 0.174980
H10   H     H_    0.666542 0.153177 0.786816 0.209278
H11   H     H_    0.248515 0.473864 0.618946 0.134166
H12   H     H_    0.396827 0.728027 0.419708 0.151820
H13   H     H_    0.013919 0.734221 0.595497 0.165349
H14   H     H_    0.780815 0.883122 0.402462 0.153241
H15   H     H_    0.653179 0.226080 0.307263 0.192790
H16   H     H_    0.115525 0.237431 0.370134 0.162180
H17   H     H_    0.288156 0.610881 0.426322 0.146782
H18   H     H_    0.642259 0.009457 0.134610 0.165940
H19   H     H_    0.141612 0.515838 0.134650 0.173764
H20   H     H_    0.654546 0.997093 0.783491 0.381580
H21   H     H_    0.153758 0.503778 0.784614 0.374910
H22   H     H_    0.551234 0.256002 0.710061 0.328952
H23   H     H_    0.890564 0.766625 0.398383 0.166250
H24   H     H_    0.263214 0.996026 0.474788 0.337220
H25   H     H_    0.753339 0.504891 0.468055 0.350760
H26   H     H_    0.034851 0.249942 0.744426 0.339400
H27   H     H_    0.247975 0.005806 0.259893 0.328581
H28   H     H_    0.752893 0.530556 0.250195 0.338840
H29   H     H_    0.773316 0.329902 0.298475 0.214814
H30   H     H_    0.195662 0.950252 0.838287 0.211609
H31   H     H_    0.695574 0.448667 0.837820 0.203263
H32   H     H_    0.332452 0.999315 0.742830 0.271090
H33   H     H_    0.832916 0.497136 0.743270 0.270343
H34   H     H_    0.503244 0.384398 0.777375 0.152014
N1    N     N_R   0.498810 1.000000 0.142780 -0.126950
N2    N     N_R   0.998810 0.500000 0.142780 -0.131056
N3    N     N_R   0.498740 1.000000 0.857170 -0.160695
N4    N     N_R   0.998740 0.500000 0.857170 -0.166466
O1    O     O_R   0.408390 0.908380 0.614690 -0.640849
O2    O     O_R   0.591620 0.908390 0.614640 -0.640737
O3    O     O_R   0.091620 0.591610 0.614640 -0.638340
O4    O     O_R   0.091620 0.408390 0.614640 -0.612745
O5    O     O_R   0.591610 0.091610 0.385310 -0.635128
O6    O     O_R   0.591610 0.908390 0.385310 -0.609629
O7    O     O_R   0.091610 0.591610 0.385310 -0.603313
O8    O     O_R   0.091610 0.408390 0.385310 -0.634282
O9    O     O_3   0.663511 0.001663 0.880743 -0.795656
O10   O     O_3   0.162476 0.515179 0.880435 -0.768951
O11   O     O_3   0.499054 0.233217 0.654315 -0.780165
O12   O     O_R   0.408390 0.091620 0.614690 -0.584996
O13   O     O_3   0.226909 0.001855 0.553826 -0.821398
O14   O     O_3   0.727900 0.499445 0.556467 -0.812863
O15   O     O_3   0.991592 0.260456 0.667568 -0.778071
O16   O     O_3   0.314236 0.999595 0.247151 -0.736748
O17   O     O_3   0.813595 0.502193 0.246814 -0.729978
O18   O     O_R   0.908390 0.408380 0.614690 -0.601371
O19   O     O_R   0.908390 0.591620 0.614690 -0.633880
O20   O     O_R   0.408370 0.908380 0.385360 -0.546230
O21   O     O_R   0.408370 0.091620 0.385360 -0.569017
O22   O     O_R   0.908370 0.408380 0.385360 -0.584012
O23   O     O_R   0.908370 0.591620 0.385360 -0.545875
O24   O     O_R   0.591620 0.091610 0.614640 -0.623775
Zn1   Zn    Zn3+2 0.500010 0.000000 0.653130 0.964167
Zn2   Zn    Zn3+2 0.000010 0.500000 0.653130 0.966052
Zn3   Zn    Zn3+2 0.499980 0.000000 0.346870 0.998165
Zn4   Zn    Zn3+2 0.999980 0.500000 0.346870 0.994676

loop_
_geom_bond_atom_site_label_1
_geom_bond_atom_site_label_2
_ccdc_geom_bond_type
C42   C47   A    
C31   C53   A    
O2    Zn1   S    
C61   C63   A    
C24   C30   A    
C41   H6    S    
C37   H2    S    
C4    C56   A    
C2    C6    A    
O24   Zn1   S    
C55   C60   A    
C18   N3    A    
C1    O1    A    
C32   C54   A    
C3    C45   A    
C10   C21   A    
C48   C52   A    
C12   O21   A    
H20   O9    S    
O18   Zn2   S    
C17   C19   A    
H26   O15   S    
N2    Zn4   S    
C46   C50   A    
C23   C61   S    
C2    C63   A    
C47   C51   A    
C21   N2    A    
C1    C59   S    
C22   N1    A    
C40   C44   A    
C46   H10   S    
O23   Zn4   S    
H21   O10   S    
C60   C62   A    
C45   C58   A    
C19   N4    A    
C2    H15   S    
C26   O2    A    
O5    Zn3   S    
C30   N4    A    
C49   C55   A    
H27   O16   S    
C41   C46   A    
C6    C50   A    
O4    Zn2   S    
C37   C43   A    
C56   C59   A    
C38   C40   A    
N4    Zn2   S    
C53   C58   A    
C48   H13   S    
C39   C41   A    
C62   H23   S    
O3    Zn2   S    
C34   C60   S    
C9    O16   S    
C45   H1    S    
C44   H9    S    
C36   C42   A    
C51   C53   A    
C52   C54   A    
C14   H30   S    
C31   O11   S    
C38   H3    S    
O12   Zn1   S    
C32   C37   A    
H24   O13   S    
C34   O19   A    
C36   H34   S    
C17   H33   S    
O1    Zn1   S    
C26   O6    A    
C44   C49   A    
C5    C26   S    
O20   Zn3   S    
C28   O8    A    
C43   H8    S    
C29   N3    A    
C23   O22   A    
C3    C7    A    
C50   C57   A    
C25   O24   A    
O21   Zn3   S    
C35   O15   S    
C10   C13   A    
O22   Zn4   S    
H25   O14   S    
O6    Zn3   S    
O8    Zn4   S    
Br2   C13   S    
N3    Zn1   S    
C35   C57   A    
C7    C28   S    
N1    Zn3   S    
C18   C20   A    
C20   N1    A    
C19   C21   A    
O19   Zn2   S    
C34   O23   A    
Br1   C11   S    
C64   H14   S    
C1    O20   A    
C23   O18   A    
C13   C15   A    
C10   O17   S    
C4    H17   S    
C28   O4    A    
C27   O7    A    
C4    C8    A    
C12   C58   S    
C9    C20   A    
C57   C61   A    
C31   C36   A    
C33   C55   A    
H22   O11   S    
C33   C38   A    
C22   H18   S    
C22   C29   A    
C5    C49   A    
C24   N2    A    
C5    C64   A    
C3    H16   S    
C9    C11   A    
C8    C27   S    
C43   C48   A    
C32   O13   S    
C24   H19   S    
C12   O12   A    
C40   H5    S    
C15   C17   A    
C47   H11   S    
C16   C18   A    
C35   C39   A    
C42   H7    S    
C8    C52   A    
C56   H12   S    
H28   O17   S    
O7    Zn4   S    
C63   H29   S    
C7    C51   A    
C25   O5    A    
C14   C16   A    
C11   C14   A    
C6    C25   S    
C54   C59   A    
C27   O3    A    
C33   O14   S    
C16   H32   S    
C30   O10   S    
C15   H31   S    
C29   O9    S    
C62   C64   A    
C39   H4    S    
