data_str_m12_o1_o10_f0_bcu.sym.116
_audit_creation_date              2012-12-11T15:20:19-0500
_audit_creation_method            fapswitch 2.2
_symmetry_space_group_name_H-M    P1
_symmetry_Int_Tables_number       1
_space_group_crystal_system       triclinic
_cell_length_a                    12.900422
_cell_length_b                    13.077306
_cell_length_c                    15.38508
_cell_angle_alpha                 116.489427
_cell_angle_beta                  63.523282
_cell_angle_gamma                 96.794506
_cell_volume                      2068.83576119

loop_
_atom_site_label
_atom_site_type_symbol
_atom_type_description
_atom_site_fract_x
_atom_site_fract_y
_atom_site_fract_z
_atom_type_partial_charge
C1    C     C_R   0.997516 0.832442 0.053244 -0.113362
C2    C     C_R   0.671560 0.564066 0.326882 -0.000941
C3    C     C_R   0.668061 0.451838 0.915690 0.146158
C4    C     C_R   0.066080 0.797904 0.304528 -0.016207
C5    C     C_R   0.339215 0.511547 0.945641 -0.133029
C6    C     C_R   0.971550 0.179155 0.781734 -0.152552
C7    C     C_R   0.202861 0.510155 0.695384 -0.136042
C8    C     C_R   0.052347 0.255539 0.087828 -0.133465
C9    C     C_R   0.952522 0.172058 0.993369 -0.121772
C10   C     C_R   0.302588 0.590777 0.791233 -0.140125
C11   C     C_R   0.260813 0.410631 0.040129 -0.167574
C12   C     C_R   0.677526 0.483597 0.224348 0.030987
C13   C     C_R   0.050293 0.278087 0.684336 0.035562
C14   C     C_R   0.364510 0.427224 0.965489 0.163813
C15   C     C_R   0.039428 0.169218 0.679147 -0.024897
C16   C     C_R   0.302698 0.562430 0.694039 0.053059
C17   C     C_R   0.009823 0.152326 0.043307 0.071569
C18   C     C_R   0.143466 0.889617 0.437100 -0.179511
C19   C     C_R   0.134913 0.981272 0.532225 -0.202053
C20   C     C_R   0.046589 0.070046 0.586083 0.152014
C21   C     C_R   0.965436 0.068287 0.549001 -0.182455
C22   C     C_R   0.973748 0.977625 0.455244 -0.198321
C23   C     C_R   0.756867 0.518918 0.891253 -0.179076
C24   C     C_R   0.063735 0.890485 0.399101 0.178733
C25   C     C_R   0.584466 0.638510 0.530125 0.032629
C26   C     C_R   0.495485 0.620794 0.613321 -0.226822
C27   C     C_R   0.388400 0.593638 0.611781 0.129563
C28   C     C_R   0.366184 0.597568 0.532453 -0.167701
C29   C     C_R   0.456768 0.611360 0.446819 -0.171985
C30   C     C_R   0.570614 0.613765 0.436251 0.067539
C31   C     C_2   0.481247 0.381926 0.931312 -0.203461
C32   C     C_2   0.574079 0.429495 0.883846 -0.213104
C33   C     C_2   0.830669 0.956244 0.085748 -0.209746
C34   C     C_R   0.012410 0.701508 0.303883 -0.161061
C35   C     C_2   0.817833 0.042338 0.180506 -0.162941
C36   C     C_R   0.683428 0.412283 0.978227 -0.111307
C37   C     C_R   0.091534 0.802255 0.209737 0.006802
C38   C     C_R   0.784729 0.568889 0.312420 -0.154418
C39   C     C_R   0.900435 0.747003 0.954831 -0.148076
C40   C     C_R   0.910637 0.851371 0.030316 0.132320
H1    H     H_    0.935465 0.110619 0.803607 0.102841
H2    H     H_    0.089297 0.274799 0.143499 0.083589
H3    H     H_    0.897360 0.114308 0.961849 0.089856
H4    H     H_    0.354541 0.650662 0.825666 0.084104
H5    H     H_    0.211346 0.819496 0.393173 0.117435
H6    H     H_    0.896504 0.137436 0.592484 0.124568
H7    H     H_    0.910267 0.975013 0.426234 0.119110
H8    H     H_    0.511376 0.628878 0.679368 0.115842
H9    H     H_    0.280567 0.587700 0.534926 0.118786
H10   H     H_    0.436702 0.619473 0.389892 0.127494
H11   H     H_    0.487321 0.329958 0.967641 0.143945
H12   H     H_    0.778606 0.552193 0.832914 0.088393
H13   H     H_    0.991730 0.668092 0.362017 0.117861
H14   H     H_    0.644655 0.340642 0.993453 0.114238
H15   H     H_    0.817082 0.619942 0.369360 0.134839
H16   H     H_    0.837758 0.730066 0.922629 0.102093
H17   H     H_    0.398412 0.548096 0.893868 0.087596
N1    N     N_R   0.037310 0.720000 0.995790 -0.044780
N2    N     N_R   0.946240 0.290860 0.848040 -0.045563
N3    N     N_R   0.146140 0.501160 0.788590 -0.040688
N4    N     N_R   0.025760 0.332690 0.063610 -0.036554
N5    N     N_R   0.962690 0.280000 0.004210 -0.040671
N6    N     N_R   0.209210 0.553840 0.847990 -0.037984
N7    N     N_R   0.175110 0.482040 0.063580 -0.039331
N8    N     N_R   0.996790 0.351810 0.788620 -0.058900
N9    N     N_R   0.790790 0.446160 0.152010 -0.061724
N10   N     N_R   0.824890 0.517960 0.936420 -0.040182
N11   N     N_R   0.003210 0.648190 0.211380 -0.044430
N12   N     N_R   0.774330 0.457010 0.995840 -0.049279
N13   N     N_R   0.053760 0.709140 0.151960 -0.056917
N14   N     N_R   0.853860 0.498840 0.211410 -0.048016
N15   N     N_R   0.974240 0.667310 0.936390 -0.041565
N16   N     N_R   0.225670 0.542990 0.004160 -0.051510
Ni1   Ni    Ni4+2 0.130310 0.630310 0.999970 0.212601
Ni2   Ni    Ni4+2 0.869690 0.369690 0.000030 0.205518
Ni3   Ni    Ni4+2 0.985640 0.509470 0.863740 0.207031
Ni4   Ni    Ni4+2 0.014360 0.490530 0.136260 0.203679
H18   H     H_    0.022116 0.895911 0.112284 0.113827
H19   H     H_    0.166595 0.498558 0.641258 0.123328
H20   H     H_    0.250818 0.352007 0.074302 0.094162
C41   C     C_R   0.079499 0.305401 0.593470 0.110812
C42   C     C_R   0.183837 0.256523 0.498807 -0.134371
C43   C     C_R   0.210953 0.281817 0.412440 -0.099596
C44   C     C_R   0.133671 0.354714 0.419281 -0.107948
C45   C     C_R   0.028393 0.401516 0.512353 -0.134926
C46   C     C_R   0.001069 0.376724 0.599180 -0.182332
H21   H     H_    0.244537 0.199991 0.492430 0.116457
H22   H     H_    0.291642 0.244112 0.340175 0.128576
H23   H     H_    0.154670 0.374222 0.352287 0.100840
H24   H     H_    0.967882 0.456685 0.517083 0.107757
H25   H     H_    0.918886 0.412302 0.670212 0.113435
H26   H     H_    0.196997 0.984275 0.562692 0.126520
C47   C     C_R   0.580083 0.426444 0.204376 0.127886
C48   C     C_R   0.570892 0.310914 0.184370 -0.151074
C49   C     C_R   0.477619 0.256304 0.166473 -0.138363
C50   C     C_R   0.391859 0.317755 0.171478 -0.130012
C51   C     C_R   0.400849 0.432726 0.191394 -0.120841
C52   C     C_R   0.497225 0.485382 0.202978 -0.171271
H27   H     H_    0.635630 0.263472 0.182783 0.116972
H28   H     H_    0.470774 0.167084 0.150752 0.118747
H29   H     H_    0.318613 0.276575 0.159607 0.088067
H30   H     H_    0.334324 0.480951 0.196360 0.117629
H31   H     H_    0.506527 0.572753 0.212588 0.112090
C53   C     C_R   0.678704 0.699847 0.555131 0.110595
C54   C     C_R   0.686049 0.814942 0.573375 -0.157268
C55   C     C_R   0.765124 0.878501 0.610304 -0.103730
C56   C     C_R   0.840133 0.826786 0.625756 -0.073091
C57   C     C_R   0.834142 0.711782 0.606741 -0.142449
C58   C     C_R   0.752506 0.648741 0.573094 -0.191054
H32   H     H_    0.627645 0.856473 0.562830 0.114009
H33   H     H_    0.766807 0.968396 0.628423 0.116032
H34   H     H_    0.901907 0.876181 0.653609 0.109059
H35   H     H_    0.891368 0.672152 0.619866 0.106574
H36   H     H_    0.746485 0.560535 0.561191 0.115021
H37   H     H_    0.570387 0.476586 0.842373 0.128557
H38   H     H_    0.775840 0.961708 0.050883 0.133189
H39   H     H_    0.867319 0.041714 0.221732 0.128719
C59   C     C_R   0.171246 0.877711 0.167136 0.101770
C60   C     C_R   0.142362 0.997279 0.220390 -0.160150
C61   C     C_R   0.208619 0.066362 0.172040 -0.117616
C62   C     C_R   0.306336 0.017678 0.071926 -0.101375
C63   C     C_R   0.337906 0.899649 0.020064 -0.119424
C64   C     C_R   0.270262 0.830025 0.067110 -0.138201
H40   H     H_    0.064401 0.036666 0.295288 0.121646
H41   H     H_    0.182006 0.157194 0.211186 0.103485
H42   H     H_    0.356996 0.070938 0.033867 0.101819
H43   H     H_    0.413614 0.861742 0.942459 0.105907
H44   H     H_    0.294908 0.739180 0.024916 0.109536

loop_
_geom_bond_atom_site_label_1
_geom_bond_atom_site_label_2
_ccdc_geom_bond_type
C50   H29   S    
C54   H32   S    
C47   C48   A    
N16   Ni1   S    
C3    C23   A    
C49   C50   A    
C14   C31   S    
N15   Ni3   S    
C2    C12   A    
C10   N6    A    
C41   C42   A    
C64   H44   S    
C13   N8    A    
C45   C46   A    
C36   N12   A    
C26   C27   A    
N8    Ni3   S    
N3    N6    A    
C18   C24   A    
C48   H27   S    
C28   C29   A    
C8    H2    S    
C46   H25   S    
C53   C58   A    
C4    C24   S    
C11   C14   A    
C55   C56   A    
C52   H31   S    
C13   C41   S    
N11   Ni4   S    
C57   C58   A    
C18   C19   A    
C56   H34   S    
C23   N10   A    
C63   H43   S    
C59   C60   A    
C19   H26   S    
C1    C40   A    
C6    C15   A    
C38   H15   S    
C19   C20   A    
N4    Ni4   S    
C6    H1    S    
N13   Ni1   S    
N7    N16   A    
N12   Ni2   S    
C51   H30   S    
C26   H8    S    
C8    N4    A    
C29   H10   S    
C16   C27   S    
C43   H22   S    
C21   C22   A    
C1    H18   S    
N4    N5    A    
C53   C54   A    
C51   C52   A    
C55   H33   S    
C15   C20   S    
C45   H24   S    
C4    C34   A    
C9    H3    S    
C33   C40   S    
C37   C59   S    
C10   H4    S    
C9    N5    A    
C36   H14   S    
C44   C45   A    
C11   N7    A    
C34   N11   A    
C39   C40   A    
C61   H41   S    
C25   C26   A    
C60   H40   S    
C12   N9    A    
N3    Ni3   S    
N10   N12   A    
C57   H35   S    
C29   C30   A    
C28   H9    S    
C2    C38   A    
N9    N14   A    
C39   N15   A    
C50   C51   A    
C5    C14   A    
C3    C32   S    
C39   H16   S    
C20   C21   A    
C62   C63   A    
C58   H36   S    
C9    C17   A    
C7    C16   A    
C13   C15   A    
C22   C24   A    
N5    Ni2   S    
C43   C44   A    
C44   H23   S    
C56   C57   A    
C18   H5    S    
N2    Ni2   S    
C7    N3    A    
N14   Ni4   S    
C61   C62   A    
N1    Ni1   S    
C7    H19   S    
C21   H6    S    
C25   C30   A    
C38   N14   A    
C33   H38   S    
C49   H28   S    
C6    N2    A    
C31   C32   D    
C41   C46   A    
C31   H11   S    
C60   C61   A    
C25   C53   S    
N6    Ni1   S    
C54   C55   A    
C8    C17   A    
C5    H17   S    
C2    C30   S    
C62   H42   S    
C10   C16   A    
C1    N1    A    
N2    N8    A    
N1    N15   A    
C23   H12   S    
C3    C36   A    
N9    Ni2   S    
C33   C35   D    
C22   H7    S    
C59   C64   A    
C32   H37   S    
C5    N16   A    
C48   C49   A    
C12   C47   S    
C35   H39   S    
C11   H20   S    
C4    C37   A    
C34   H13   S    
N11   N13   A    
C42   C43   A    
C27   C28   A    
N7    Ni4   S    
N10   Ni3   S    
C63   C64   A    
C37   N13   A    
C47   C52   A    
C42   H21   S    
