data_str_m12_o9_o12_f0_bcu.sym.117
_audit_creation_date              2012-12-11T17:41:19-0500
_audit_creation_method            fapswitch 2.2
_symmetry_space_group_name_H-M    P1
_symmetry_Int_Tables_number       1
_space_group_crystal_system       triclinic
_cell_length_a                    15.565144
_cell_length_b                    15.090255
_cell_length_c                    14.89802
_cell_angle_alpha                 109.659372
_cell_angle_beta                  121.523942
_cell_angle_gamma                 58.807292
_cell_volume                      2541.2714551

loop_
_atom_site_label
_atom_site_type_symbol
_atom_type_description
_atom_site_fract_x
_atom_site_fract_y
_atom_site_fract_z
_atom_type_partial_charge
C1    C     C_R   0.748588 0.997515 0.791856 -0.100720
C2    C     C_R   0.195382 0.063077 0.226512 -0.132479
C3    C     C_R   0.211848 0.298793 0.566564 0.150002
C4    C     C_R   0.863182 0.725685 0.519669 0.150151
C5    C     C_R   0.496717 0.297827 0.429005 0.058399
C6    C     C_R   0.495879 0.677053 0.467922 0.051307
C7    C     C_R   0.499989 0.921839 0.793789 0.081959
C8    C     C_R   0.494789 0.959374 0.169881 0.050834
C9    C     C_R   0.776419 0.582330 0.853525 -0.109704
C10   C     C_R   0.149924 0.216567 0.975895 -0.100937
C11   C     C_R   0.683511 0.665416 0.866039 -0.132973
C12   C     C_R   0.256564 0.140093 0.990224 -0.160414
C13   C     C_R   0.694502 0.748222 0.944045 0.007103
C14   C     C_R   0.277726 0.034287 0.965367 -0.000643
C15   C     C_R   0.801759 0.747521 0.009496 -0.062702
C16   C     C_R   0.188931 0.005426 0.922126 -0.072053
C17   C     C_R   0.894603 0.662007 0.996648 -0.162288
C18   C     C_R   0.081765 0.084099 0.906170 -0.172187
C19   C     C_R   0.881866 0.580231 0.919249 -0.123028
C20   C     C_R   0.062601 0.188661 0.933589 -0.139721
C21   C     C_R   0.587702 0.847738 0.052439 -0.166266
C22   C     C_R   0.394057 0.934452 0.875377 -0.242943
C23   C     C_R   0.243666 0.289460 0.491087 -0.118044
C24   C     C_R   0.800388 0.725478 0.559448 -0.119569
C25   C     C_R   0.488936 0.920113 0.063089 0.079054
C26   C     C_R   0.496232 0.886688 0.871707 0.030246
C27   C     C_R   0.388820 0.957809 0.970324 0.113136
C28   C     C_R   0.592670 0.830650 0.956611 0.097953
C29   C     C_2   0.149818 0.396208 0.614059 -0.218491
C30   C     C_2   0.978268 0.651961 0.538907 -0.207182
C31   C     C_2   0.132911 0.487522 0.598947 -0.095897
C32   C     C_2   0.037982 0.581020 0.608380 -0.110798
C33   C     C_2   0.825286 0.132652 0.901431 -0.229712
C34   C     C_2   0.015251 0.046400 0.157116 -0.213239
C35   C     C_R   0.283631 0.774404 0.634047 -0.109392
C36   C     C_R   0.723024 0.131485 0.281735 -0.108429
C37   C     C_R   0.359706 0.698923 0.593466 -0.118652
C38   C     C_R   0.637761 0.221693 0.300515 -0.148074
C39   C     C_R   0.321751 0.662061 0.486113 0.094484
C40   C     C_R   0.662650 0.298883 0.380627 0.120064
C41   C     C_R   0.206659 0.701495 0.420107 -0.168480
C42   C     C_R   0.774296 0.284600 0.440185 -0.170372
C43   C     C_R   0.130971 0.778198 0.460769 -0.121320
C44   C     C_R   0.859143 0.194614 0.420436 -0.101782
C45   C     C_R   0.590719 0.217224 0.486655 -0.134789
C46   C     C_R   0.404928 0.771435 0.448348 -0.106095
C47   C     C_R   0.169451 0.814504 0.567751 -0.110718
C48   C     C_R   0.833575 0.118047 0.341443 -0.085053
C49   C     C_R   0.399651 0.481409 0.423077 -0.228700
C50   C     C_R   0.570787 0.490738 0.417662 -0.238682
C51   C     C_R   0.487905 0.390362 0.410551 0.057379
C52   C     C_R   0.488880 0.580121 0.442567 0.068636
C53   C     C_R   0.572539 0.393748 0.402718 0.023438
C54   C     C_R   0.401808 0.575671 0.444933 0.017264
C55   C     C_2   0.853520 0.108107 0.994365 -0.078300
C56   C     C_2   0.951831 0.116767 0.086469 -0.108486
C57   C     C_R   0.408173 0.980439 0.711643 -0.135841
C58   C     C_R   0.590216 0.950228 0.265509 -0.124599
C59   C     C_R   0.406420 0.285919 0.407462 -0.149267
C60   C     C_R   0.591331 0.693791 0.530634 -0.139897
C61   C     C_R   0.591980 0.908239 0.788443 -0.103237
C62   C     C_R   0.405060 0.019725 0.194142 -0.124774
C63   C     C_R   0.242701 0.199037 0.583286 -0.150536
C64   C     C_R   0.801886 0.815334 0.468563 -0.143705
C65   C     C_R   0.748787 0.090040 0.701712 -0.124645
C66   C     C_R   0.196235 0.971003 0.316267 -0.151964
C67   C     C_R   0.774249 0.076968 0.802228 0.150113
C68   C     C_R   0.132300 0.024703 0.227732 0.156820
H1    H     H_    0.757574 0.966592 0.853345 0.100650
H2    H     H_    0.165718 0.120723 0.177246 0.097356
H3    H     H_    0.984061 0.996061 0.156345 0.144002
H4    H     H_    0.855298 0.182065 0.898747 0.123867
H5    H     H_    0.953941 0.515415 0.909713 0.107751
H6    H     H_    0.979639 0.248399 0.921106 0.108254
H7    H     H_    0.766698 0.519000 0.793313 0.107023
H8    H     H_    0.134592 0.297724 0.996031 0.107296
H9    H     H_    0.602641 0.664463 0.815779 0.112863
H10   H     H_    0.323052 0.163094 0.020406 0.123982
H11   H     H_    0.977272 0.659349 0.045053 0.154355
H12   H     H_    0.012611 0.064251 0.871865 0.165087
H13   H     H_    0.662236 0.807990 0.119382 0.110223
H14   H     H_    0.317123 0.968484 0.807521 0.114746
H15   H     H_    0.006998 0.582317 0.659472 0.126816
H16   H     H_    0.174997 0.491300 0.561779 0.131245
H17   H     H_    0.010301 0.649433 0.487956 0.137505
H18   H     H_    0.106569 0.393499 0.650770 0.128732
H19   H     H_    0.110796 0.872927 0.599507 0.126636
H20   H     H_    0.899550 0.048394 0.326750 0.092863
H21   H     H_    0.230948 0.350744 0.457415 0.089681
H22   H     H_    0.827259 0.674615 0.614369 0.083083
H23   H     H_    0.313097 0.800552 0.717192 0.135720
H24   H     H_    0.703165 0.072049 0.220959 0.168132
H25   H     H_    0.447837 0.667678 0.645721 0.104868
H26   H     H_    0.552491 0.231055 0.252984 0.117598
H27   H     H_    0.175878 0.672747 0.337444 0.142781
H28   H     H_    0.795983 0.342287 0.502961 0.106481
H29   H     H_    0.042459 0.808635 0.409676 0.129162
H30   H     H_    0.944858 0.183986 0.466808 0.107989
H31   H     H_    0.335592 0.479123 0.431276 0.129277
H32   H     H_    0.634431 0.496720 0.412314 0.133768
H33   H     H_    0.676531 0.197773 0.510060 0.109055
H34   H     H_    0.318246 0.787133 0.401059 0.114403
H35   H     H_    0.322568 0.994508 0.680885 0.091516
H36   H     H_    0.675992 0.908812 0.277588 0.100859
H37   H     H_    0.320650 0.327152 0.353288 0.093154
H38   H     H_    0.676759 0.636506 0.563184 0.097782
H39   H     H_    0.677825 0.857831 0.832286 0.108746
H40   H     H_    0.319139 0.037195 0.144638 0.127985
H41   H     H_    0.229904 0.178208 0.636641 0.102655
H42   H     H_    0.832764 0.846274 0.441620 0.096116
H43   H     H_    0.758148 0.146024 0.681700 0.097416
H44   H     H_    0.165911 0.945566 0.349327 0.098841
H45   H     H_    0.981932 0.167294 0.085994 0.131242
H46   H     H_    0.821825 0.060810 0.998156 0.144291
N1    N     N_R   0.705410 0.966550 0.689210 -0.049255
N2    N     N_R   0.294590 0.033450 0.310790 -0.044873
N3    N     N_R   0.294590 0.188320 0.465660 -0.045964
N4    N     N_R   0.705410 0.811680 0.534340 -0.043439
N5    N     N_R   0.556610 0.157790 0.497330 -0.040491
N6    N     N_R   0.443390 0.842210 0.502670 -0.043050
N7    N     N_R   0.443390 0.997080 0.657540 -0.040787
N8    N     N_R   0.556610 0.002920 0.342460 -0.039982
N9    N     N_R   0.443390 0.203250 0.451380 -0.037531
N10   N     N_R   0.556610 0.796750 0.548620 -0.040263
N11   N     N_R   0.556610 0.951620 0.703500 -0.049422
N12   N     N_R   0.443390 0.048380 0.296500 -0.044668
N13   N     N_R   0.294590 0.131500 0.522480 -0.042778
N14   N     N_R   0.705410 0.868500 0.477520 -0.041428
N15   N     N_R   0.705410 0.023370 0.632390 -0.043324
N16   N     N_R   0.294590 0.976630 0.367610 -0.040922
Ni1   Ni    Ni4+2 0.629830 0.882720 0.617850 0.216970
Ni2   Ni    Ni4+2 0.370170 0.117280 0.382150 0.211126
Ni3   Ni    Ni4+2 0.629830 0.013030 0.487540 0.221515
Ni4   Ni    Ni4+2 0.370170 0.986970 0.512460 0.213367
C69   C     C_2   0.819607 0.835983 0.087095 0.932911
O1    O     O_2   0.744441 0.923904 0.075438 -0.682471
O2    O     O_R   0.924477 0.819154 0.171969 -0.831328
H47   H     H_    0.927322 0.885355 0.218263 0.303554
C70   C     C_2   0.204241 0.895264 0.891683 0.966673
O3    O     O_2   0.296760 0.823701 0.926797 -0.644610
O4    O     O_R   0.111627 0.873258 0.823396 -0.814831
H48   H     H_    0.132243 0.795859 0.808245 0.330889

loop_
_geom_bond_atom_site_label_1
_geom_bond_atom_site_label_2
_ccdc_geom_bond_type
C33   C55   D    
C66   C68   A    
C55   C56   S    
C34   C56   D    
N9    Ni2   S    
C70   O4    S    
C3    C23   A    
N13   Ni4   S    
C35   C47   A    
C49   C51   A    
C69   O1    D    
C39   C41   A    
N1    Ni1   S    
C46   H34   S    
N5    Ni3   S    
C7    C26   S    
N4    N14   A    
C42   H28   S    
C22   H14   S    
C35   C37   A    
C2    C68   A    
C4    C24   A    
C39   C54   S    
C15   C69   S    
C49   C54   A    
C17   H11   S    
C69   O2    S    
C3    C29   S    
N3    Ni2   S    
C65   H43   S    
N4    Ni1   S    
C11   H9    S    
C33   H4    S    
C8    C58   A    
C10   H8    S    
C9    C19   A    
C7    C61   A    
C10   C20   A    
C64   N14   A    
C12   H10   S    
C50   C52   A    
C56   H45   S    
C48   H20   S    
C13   C28   S    
C14   C27   S    
N6    Ni4   S    
C36   H24   S    
C40   C42   A    
C38   C40   A    
C8    C25   S    
C41   C43   A    
N16   Ni4   S    
C42   C44   A    
C10   C12   A    
C52   C54   A    
C59   N9    A    
C57   H35   S    
C58   N8    A    
C50   C53   A    
C5    C59   A    
C46   N6    A    
C6    C60   A    
C19   H5    S    
C34   C68   S    
C62   N12   A    
C17   C19   A    
C65   C67   A    
C5    C45   A    
C1    H1    S    
C31   H16   S    
N10   Ni1   S    
C51   C53   A    
N2    N16   A    
C47   H19   S    
N8    N12   A    
N8    Ni3   S    
N7    N11   A    
C49   H31   S    
C9    C11   A    
N14   Ni3   S    
N11   Ni1   S    
C64   H42   S    
C31   C32   S    
N2    Ni2   S    
N12   Ni2   S    
C38   H26   S    
C23   H21   S    
C37   H25   S    
C59   H37   S    
C30   H17   S    
N3    N13   A    
C29   H18   S    
C45   H33   S    
N15   Ni3   S    
C18   H12   S    
C21   C28   A    
C21   H13   S    
C44   H30   S    
C3    C63   A    
C22   C27   A    
C13   C15   A    
N7    Ni4   S    
C14   C16   A    
C16   C70   S    
C58   H36   S    
C60   H38   S    
C33   C67   S    
N1    N15   A    
C15   C17   A    
C32   H15   S    
C21   C25   A    
C6    C46   A    
C26   C28   A    
C43   H29   S    
C12   C14   A    
C24   H22   S    
C23   N3    A    
C2    N2    A    
C65   N15   A    
C70   O3    D    
C60   N10   A    
C20   H6    S    
C55   H46   S    
N5    N9    A    
C25   C27   A    
C1    N1    A    
O2    H47   S    
C4    C64   A    
C24   N4    A    
C6    C52   S    
C36   C38   A    
C29   C31   D    
O4    H48   S    
C30   C32   D    
C11   C13   A    
C45   N5    A    
C41   H27   S    
C1    C67   A    
C36   C48   A    
C18   C20   A    
C61   H39   S    
C4    C30   S    
C50   H32   S    
C57   N7    A    
C44   C48   A    
C37   C39   A    
C62   H40   S    
C16   C18   A    
C40   C53   S    
C22   C26   A    
C5    C51   S    
C61   N11   A    
C9    H7    S    
C66   H44   S    
C2    H2    S    
C43   C47   A    
C34   H3    S    
C7    C57   A    
C63   N13   A    
N6    N10   A    
C8    C62   A    
C63   H41   S    
C66   N16   A    
C35   H23   S    
