data_str_m2_o10_o29_f0_pcu.sym.48
_audit_creation_date              2012-10-26T20:17:39-0400
_audit_creation_method            fapswitch 2.2
_symmetry_space_group_name_H-M    P1
_symmetry_Int_Tables_number       1
_space_group_crystal_system       triclinic
_cell_length_a                    27.816988
_cell_length_b                    8.709865
_cell_length_c                    7.453533
_cell_angle_alpha                 103.466298
_cell_angle_beta                  94.857625
_cell_angle_gamma                 93.905806
_cell_volume                      1742.69829205

loop_
_atom_site_label
_atom_site_type_symbol
_atom_type_description
_atom_site_fract_x
_atom_site_fract_y
_atom_site_fract_z
_atom_type_partial_charge
Br1   Br    Br    0.742914 0.452194 0.095510 -0.407864
Br2   Br    Br    0.258025 0.560664 0.908277 -0.436508
Br3   Br    Br    0.845463 0.034459 0.236289 -0.270936
Br4   Br    Br    0.154946 0.976673 0.770552 -0.278667
Br5   Br    Br    0.958826 0.012281 0.319409 -0.499486
Br6   Br    Br    0.041576 0.999436 0.688074 -0.498596
C1    C     C_R   0.495769 0.199564 0.453020 0.569899
C2    C     C_R   0.866561 0.373473 0.429746 -0.006351
C3    C     C_R   0.354089 0.484550 0.499901 -0.031484
C4    C     C_R   0.645954 0.519994 0.501094 -0.025342
C5    C     C_R   0.968607 0.365473 0.417468 0.008885
C6    C     C_R   0.031657 0.646197 0.588877 0.008752
C7    C     C_R   0.980964 0.640531 0.606151 0.017107
C8    C     C_R   0.019271 0.371174 0.400043 0.017072
C9    C     C_R   0.949470 0.505428 0.510200 -0.006750
C10   C     C_R   0.050776 0.506247 0.495948 -0.006899
C11   C     C_R   0.936577 0.223364 0.356554 0.133172
C12   C     C_R   0.499081 0.799415 0.546915 0.561249
C13   C     C_R   0.063738 0.788208 0.650056 0.133826
C14   C     C_R   0.886039 0.229361 0.352046 0.190962
C15   C     C_R   0.114279 0.782099 0.654221 0.191903
C16   C     C_R   0.407340 0.495643 0.500234 0.528956
C17   C     C_R   0.592668 0.505389 0.499951 0.563610
C18   C     C_R   0.039186 0.252191 0.274455 -0.066645
C19   C     C_R   0.960990 0.759495 0.731592 -0.066598
C20   C     C_2   0.489677 0.030777 0.425650 0.222420
C21   C     C_2   0.493491 0.965237 0.573412 0.228921
C22   C     C_R   0.170757 0.351303 0.418381 0.453171
C23   C     C_R   0.101667 0.502181 0.491504 -0.110438
C24   C     C_R   0.829408 0.660143 0.587011 0.453804
C25   C     C_R   0.184108 0.625532 0.569051 0.470283
C26   C     C_R   0.816164 0.385995 0.435870 0.468954
C27   C     C_R   0.283438 0.511868 0.672758 0.213974
C28   C     C_R   0.716985 0.498243 0.330113 0.218160
C29   C     C_R   0.333608 0.517537 0.669273 -0.176531
C30   C     C_R   0.666740 0.489389 0.332324 -0.157038
C31   C     C_R   0.323234 0.437625 0.331864 0.251429
C32   C     C_R   0.676589 0.568682 0.669579 0.252426
C33   C     C_R   0.273029 0.435256 0.337016 -0.051303
C34   C     C_R   0.898570 0.509421 0.514358 -0.110155
C35   C     C_R   0.726817 0.574772 0.665832 -0.047067
C36   C     C_R   0.252860 0.473185 0.505390 0.189844
C37   C     C_R   0.747324 0.537938 0.498123 0.186923
C38   C     C_3   0.331801 0.244924 0.073611 -0.080366
C39   C     C_3   0.661903 0.763271 0.914950 -0.063445
C40   C     C_3   0.091878 0.968683 0.198489 -0.011558
C41   C     C_3   0.908215 0.042846 0.807652 -0.011330
C42   C     C_3   0.431852 0.903803 0.196324 -0.087781
C43   C     C_3   0.444151 0.050515 0.794934 -0.102627
C44   C     C_R   0.120493 0.361433 0.399296 0.059622
C45   C     C_R   0.879691 0.650112 0.606441 0.059620
C46   C     C_R   0.088893 0.237644 0.284596 0.308686
C47   C     C_R   0.911262 0.773919 0.721302 0.308438
C48   C     C_R   0.133718 0.638062 0.575953 -0.005309
Cu1   Cu    Cu3+1 0.505380 0.517380 0.684380 1.022174
Cu2   Cu    Cu3+1 0.494620 0.482620 0.315620 1.010586
H1    H     H_    0.459733 0.383622 0.949090 0.238932
H2    H     H_    0.342690 0.167124 0.166439 0.103985
H3    H     H_    0.352872 0.217557 0.951994 0.121598
H4    H     H_    0.643283 0.826638 0.819284 0.129788
H5    H     H_    0.700493 0.811272 0.951407 0.170556
H6    H     H_    0.643999 0.786731 0.044872 0.152971
H7    H     H_    0.053109 0.933042 0.148002 0.142457
H8    H     H_    0.098867 0.970618 0.348279 0.179076
H9    H     H_    0.113086 0.876370 0.121610 0.177046
H10   H     H_    0.901170 0.041090 0.657927 0.179176
H11   H     H_    0.947000 0.078434 0.857972 0.142153
H12   H     H_    0.539575 0.619633 0.051316 0.256465
H13   H     H_    0.887035 0.135102 0.884807 0.177228
H14   H     H_    0.413269 0.012778 0.195984 0.081377
H15   H     H_    0.415272 0.838618 0.291091 0.125586
H16   H     H_    0.425671 0.825173 0.054696 0.161113
H17   H     H_    0.427213 0.927358 0.775090 0.108014
H18   H     H_    0.422328 0.115113 0.709448 0.078207
H19   H     H_    0.443337 0.111565 0.942436 0.162019
H20   H     H_    0.249317 0.406821 0.208964 0.193280
H21   H     H_    0.750224 0.605369 0.794703 0.197118
H22   H     H_    0.644009 0.455928 0.201527 0.192062
H23   H     H_    0.356548 0.550261 0.799627 0.174991
H24   H     H_    0.016563 0.172311 0.161939 0.169206
H25   H     H_    0.983568 0.839346 0.844247 0.169187
H26   H     H_    0.292822 0.217399 0.021126 0.182846
N1    N     N_R   0.201316 0.482095 0.502959 -0.393064
N2    N     N_R   0.798905 0.529394 0.501742 -0.394355
N3    N     N_2   0.486510 0.456430 0.038510 -0.238135
N4    N     N_2   0.513490 0.543570 0.961490 -0.230144
O1    O     O_R   0.503500 0.286120 0.619780 -0.477994
O2    O     O_2   0.810926 0.799354 0.651635 -0.401482
O3    O     O_2   0.784141 0.256948 0.380636 -0.387502
O4    O     O_2   0.216150 0.754571 0.623594 -0.395181
O5    O     O_3   0.342199 0.406937 0.162475 -0.536195
O6    O     O_3   0.657716 0.598225 0.838886 -0.530766
O7    O     O_3   0.107025 0.115371 0.161928 -0.479318
O8    O     O_3   0.893080 0.896060 0.843993 -0.479434
O9    O     O_3   0.482245 0.940559 0.244072 -0.553099
O10   O     O_3   0.492778 0.052968 0.753946 -0.536701
O11   O     O_R   0.496500 0.713880 0.380220 -0.493369
O12   O     O_R   0.494410 0.256780 0.308360 -0.477921
O13   O     O_R   0.505590 0.743220 0.691640 -0.476924
O14   O     O_R   0.434810 0.514700 0.655690 -0.545618
O15   O     O_R   0.565190 0.485300 0.344310 -0.518920
O16   O     O_R   0.425720 0.485350 0.344280 -0.461925
O17   O     O_R   0.574280 0.514650 0.655720 -0.441325
O18   O     O_2   0.189179 0.211931 0.353991 -0.404819

loop_
_geom_bond_atom_site_label_1
_geom_bond_atom_site_label_2
_ccdc_geom_bond_type
C18   C46   A    
C24   C45   A    
C39   H4    S    
C1    O12   A    
C32   O6    S    
H12   N4    S    
Cu2   O12   S    
Cu1   Cu2   S    
N3    N4    D    
Br6   C13   S    
C20   C21   D    
C2    C14   A    
C1    C20   S    
C27   C36   A    
C13   C15   A    
C19   C47   A    
Cu2   O15   S    
C38   H26   S    
C35   H21   S    
C15   C48   A    
C5    C8    A    
C3    C16   S    
Br5   C11   S    
C23   C48   A    
C38   H3    S    
Cu1   O17   S    
C39   H6    S    
C11   C14   A    
C25   N1    A    
C8    C18   A    
C39   O6    S    
C41   H13   S    
C5    C9    A    
C18   H24   S    
C17   O17   A    
C6    C10   A    
C38   H2    S    
Cu1   O14   S    
C44   C46   A    
C43   H19   S    
C12   O11   A    
C12   C21   S    
C41   H10   S    
C28   C30   A    
C39   H5    S    
C43   O10   S    
C22   N1    A    
C19   H25   S    
C37   N2    S    
C35   C37   A    
C7    C19   A    
C21   O10   S    
C22   C44   A    
Cu2   O11   S    
C42   H16   S    
C41   H11   S    
Br1   C28   S    
C33   C36   A    
C23   C44   A    
C26   N2    A    
C1    O1    A    
C16   O14   A    
C31   O5    S    
C2    C26   A    
C46   O7    S    
C40   H9    S    
C42   O9    S    
C10   C23   A    
C40   H8    S    
C45   C47   A    
C22   O18   S    
C26   O3    S    
C25   O4    S    
C3    C31   A    
Br3   C14   S    
C33   H20   S    
C38   O5    S    
C32   C35   A    
Cu1   O1    S    
Br2   C27   S    
C7    C9    A    
C8    C10   A    
C12   O13   A    
C42   H15   S    
C24   O2    S    
C20   O9    S    
C5    C11   A    
C47   O8    S    
C28   C37   A    
C42   H14   S    
C4    C17   S    
C34   C45   A    
C16   O16   A    
C40   H7    S    
C4    C32   A    
Cu1   N4    S    
C36   N1    S    
Cu2   O16   S    
C31   C33   A    
C30   H22   S    
Br4   C15   S    
Cu2   N3    S    
C17   O15   A    
C40   O7    S    
C6    C13   A    
C29   H23   S    
C27   C29   A    
C41   O8    S    
H1    N3    S    
C43   H17   S    
C25   C48   A    
C24   N2    A    
C9    C34   A    
C6    C7    A    
Cu1   O13   S    
C3    C29   A    
C43   H18   S    
C4    C30   A    
C2    C34   A    
