data_str_m2_o14_o18_f0_pcu.sym.217
_audit_creation_date              2013-03-05T15:50:50-0500
_audit_creation_method            fapswitch 2.2
_symmetry_space_group_name_H-M    P1
_symmetry_Int_Tables_number       1
_space_group_crystal_system       triclinic
_cell_length_a                    9.623227
_cell_length_b                    10.774514
_cell_length_c                    15.522077
_cell_angle_alpha                 84.610094
_cell_angle_beta                  74.203363
_cell_angle_gamma                 89.326154
_cell_volume                      1541.6270764

loop_
_atom_site_label
_atom_site_type_symbol
_atom_site_description
_atom_site_fract_x
_atom_site_fract_y
_atom_site_fract_z
_atom_type_partial_charge
O1    O     O_R   0.118810 0.319640 0.500010 -0.580896
O2    O     O_R   0.881240 0.319660 0.500000 -0.551911
C1    C     C_R   0.999687 0.262514 0.502605 0.824836
O3    O     O_R   0.055570 0.499980 0.629840 -0.600205
O4    O     O_R   0.818000 0.500010 0.629830 -0.588624
C2    C     C_R   0.918102 0.497963 0.672011 0.760552
Cu1   Cu    Cu3+1 0.140660 0.499990 0.500010 0.994895
Cu2   Cu    Cu3+1 0.859340 0.500010 0.499990 0.981590
O5    O     O_R   0.118760 0.680340 0.500000 -0.561708
O6    O     O_R   0.881190 0.680360 0.499990 -0.607812
O7    O     O_R   0.182000 0.499990 0.370170 -0.532396
O8    O     O_R   0.944430 0.500020 0.370160 -0.581722
C3    C     C_R   0.997371 0.736456 0.504415 0.838036
C4    C     C_R   0.081860 0.498118 0.328091 0.876315
C5    C     C_R   0.872574 0.493984 0.770503 -0.065013
C6    C     C_R   0.128961 0.510297 0.229253 -0.054966
C7    C     C_R   0.923836 0.459980 0.914633 -0.127857
C8    C     C_R   0.971474 0.470720 0.821236 -0.141830
C9    C     C_R   0.726654 0.510541 0.814081 -0.207380
C10   C     C_R   0.676943 0.507022 0.908317 0.089905
C11   C     C_R   0.777737 0.477433 0.958376 0.077242
C12   C     C_R   0.530362 0.530560 0.953869 0.037196
C13   C     C_R   0.484514 0.515759 0.049852 -0.044796
C14   C     C_R   0.592185 0.495830 0.097319 0.331500
C15   C     C_R   0.734030 0.471312 0.051515 -0.232764
C16   C     C_R   0.429616 0.573648 0.906548 -0.158487
C17   C     C_R   0.286871 0.594653 0.950878 -0.183247
C18   C     C_R   0.236920 0.568822 0.043535 0.155487
C19   C     C_R   0.333509 0.525012 0.093882 0.110354
C20   C     C_R   0.090263 0.585618 0.086285 -0.170384
C21   C     C_R   0.036937 0.558134 0.178812 -0.097007
C22   C     C_R   0.273740 0.487569 0.185835 -0.127919
H1    H     H_    0.813427 0.455978 0.089210 0.181278
H2    H     H_    0.337291 0.438795 0.225234 0.193475
H3    H     H_    0.924786 0.576488 0.210941 0.199322
H4    H     H_    0.214158 0.629051 0.911846 0.140689
H5    H     H_    0.001665 0.438992 0.952744 0.155257
H6    H     H_    0.084919 0.458370 0.788883 0.182135
H7    H     H_    0.653452 0.523933 0.772751 0.152496
H8    H     H_    0.458216 0.596715 0.834879 0.137680
H9    H     H_    0.017235 0.622124 0.048184 0.153046
C23   C     C_R   0.059611 0.108858 0.653007 -0.250140
H10   H     H_    0.059230 0.208898 0.654798 0.167195
C24   C     C_R   0.088990 0.034520 0.725161 0.393118
C25   C     C_R   0.084829 0.904624 0.725639 -0.198038
H11   H     H_    0.105799 0.844944 0.780707 0.176329
C26   C     C_R   0.053635 0.849751 0.655227 -0.233486
H12   H     H_    0.049830 0.749122 0.659606 0.156451
C27   C     C_R   0.026917 0.923496 0.581529 0.100878
C28   C     C_R   0.029529 0.054731 0.580263 0.004071
C29   C     C_R   0.999614 0.127974 0.506721 -0.154527
C30   C     C_R   0.968078 0.071845 0.436180 0.259354
H13   H     H_    0.944645 0.900773 0.383128 0.218696
C31   C     C_R   0.965068 0.943533 0.438606 -0.179349
C32   C     C_R   0.994564 0.869612 0.509676 -0.139042
H14   H     H_    0.589951 0.341151 0.592133 0.140698
C33   C     C_R   0.697349 0.678821 0.389480 -0.203731
H15   H     H_    0.810455 0.668038 0.374777 0.221918
C34   C     C_R   0.653602 0.787066 0.349937 0.278008
C35   C     C_R   0.508104 0.806205 0.363652 -0.223502
H16   H     H_    0.476040 0.892016 0.332258 0.230345
C36   C     C_R   0.409535 0.707235 0.396800 0.276474
C37   C     C_R   0.448033 0.596436 0.447668 0.162129
C38   C     C_R   0.598669 0.591227 0.446744 0.147789
N1    N     N_R   0.648320 0.501210 0.499140 -0.185551
C39   C     C_R   0.552560 0.412762 0.550437 -0.006793
H17   H     H_    0.333415 0.339624 0.590595 0.149488
C40   C     C_R   0.405425 0.411903 0.549645 -0.032613
N2    N     N_R   0.352470 0.501290 0.499110 -0.192334
Br1   Br    Br    0.937707 0.166867 0.331723 -0.370332
N3    N     N_R   0.122796 0.090742 0.797715 0.130828
O9    O     O_R   0.143897 0.210572 0.792700 -0.395072
O10   O     O_R   0.136821 0.022247 0.868443 -0.323252
N4    N     N_R   0.756968 0.872311 0.288946 0.144331
O11   O     O_R   0.884170 0.833783 0.247428 -0.347315
O12   O     O_R   0.718919 0.984136 0.265866 -0.277029
Br2   Br    Br    0.272067 0.740775 0.326678 -0.418503
N5    N     N_R   0.569400 0.527181 0.187441 0.095427
O13   O     O_R   0.611413 0.451819 0.245697 -0.354306
O14   O     O_R   0.545665 0.642908 0.202957 -0.324977

loop_
_geom_bond_atom_site_label_1
_geom_bond_atom_site_label_2
_geom_bond_distance
_ccdc_geom_bond_type
C5    C8    1.397899 A    
C39   C40   1.419451 A    
C36   Br2   1.940142 S    
C9    C10   1.406745 A    
Cu1   Cu2   2.707288 S    
C26   C27   1.410882 A    
H13   C31   1.077610 S    
C6    C21   1.397795 A    
Cu1   O7    1.945129 S    
C16   C17   1.385270 A    
N4    O12   1.301562 A    
C13   C19   1.434349 A    
C18   C19   1.418937 A    
C19   C22   1.407505 A    
C20   C21   1.391457 A    
O7    C4    1.304336 A    
N5    O14   1.297967 A    
C33   C34   1.381613 A    
C24   N3    1.439904 S    
C35   C36   1.398785 A    
O5    C3    1.297089 A    
C2    C5    1.467824 S    
C37   N2    1.415216 A    
C40   N2    1.366280 A    
C13   C14   1.429429 A    
C20   H9    1.083719 S    
Cu2   N1    2.034206 S    
C23   C24   1.405118 A    
O3    Cu1   1.957855 S    
C30   C31   1.379900 A    
C28   C29   1.418829 A    
C25   C26   1.392266 A    
N4    O11   1.301863 A    
H17   C40   1.081940 S    
C14   C15   1.391735 A    
O3    C2    1.305960 A    
N3    O10   1.301640 A    
C1    C29   1.444998 S    
N5    O13   1.301484 A    
C27   C32   1.411701 A    
C7    C11   1.403953 A    
C29   C30   1.402274 A    
C35   H16   1.085365 S    
O1    C1    1.296684 A    
C22   H2    1.076978 S    
C5    C9    1.400304 A    
C36   C37   1.468885 A    
C26   H12   1.080391 S    
Cu2   O8    1.957855 S    
C7    C8    1.390371 A    
C7    H5    1.083569 S    
C34   N4    1.440388 S    
C9    H7    1.074643 S    
C23   C28   1.415817 A    
C14   N5    1.427955 S    
C10   C12   1.426975 A    
N1    C39   1.367478 A    
C21   H3    1.083084 S    
C23   H10   1.080785 S    
C24   C25   1.399882 A    
C33   C38   1.409432 A    
Cu1   O5    1.952103 S    
C11   C15   1.386725 A    
C31   C32   1.389949 A    
O1    Cu1   1.956984 S    
O2    Cu2   1.952103 S    
O8    C4    1.306742 A    
O6    C3    1.298278 A    
Cu1   N2    2.034741 S    
O4    Cu2   1.945129 S    
C17   H4    1.084714 S    
C6    C22   1.402516 A    
C38   N1    1.372192 A    
C18   C20   1.404113 A    
O2    C1    1.297649 A    
C8    H6    1.082753 S    
N3    O9    1.301126 A    
C16   H8    1.076127 S    
C33   H15   1.056916 S    
O4    C2    1.302798 A    
H14   C39   1.081722 S    
C4    C6    1.470148 S    
C30   Br1   1.923953 S    
C37   C38   1.446239 A    
C25   H11   1.082790 S    
C34   C35   1.373847 A    
C10   C11   1.415182 A    
Cu2   O6    1.956984 S    
C27   C28   1.412702 A    
C12   C16   1.417042 A    
C17   C18   1.388732 A    
C12   C13   1.427908 A    
C15   H1    1.084300 S    
C3    C32   1.444170 S    
