data_str_m3_o14_o14_f0_pcu.sym.39
_audit_creation_date              2013-03-05T15:52:20-0500
_audit_creation_method            fapswitch 2.2
_symmetry_space_group_name_H-M    P1
_symmetry_Int_Tables_number       1
_space_group_crystal_system       triclinic
_cell_length_a                    14.915586
_cell_length_b                    15.19431
_cell_length_c                    9.935723
_cell_angle_alpha                 89.561337
_cell_angle_beta                  90.057018
_cell_angle_gamma                 89.928261
_cell_volume                      2251.68425194

loop_
_atom_site_label
_atom_site_type_symbol
_atom_site_description
_atom_site_fract_x
_atom_site_fract_y
_atom_site_fract_z
_atom_type_partial_charge
O1    O     O_R   0.408390 0.908380 0.614690 -0.644384
O2    O     O_R   0.408390 0.091620 0.614690 -0.630883
O3    O     O_R   0.908390 0.408380 0.614690 -0.644247
O4    O     O_R   0.908390 0.591620 0.614690 -0.630844
O5    O     O_R   0.408370 0.908380 0.385360 -0.624601
O6    O     O_R   0.408370 0.091620 0.385360 -0.631323
O7    O     O_R   0.908370 0.408380 0.385360 -0.624562
O8    O     O_R   0.908370 0.591620 0.385360 -0.630961
C1    C     C_R   0.383079 0.877658 0.500505 0.869651
C2    C     C_R   0.382196 0.121466 0.499580 0.872786
C3    C     C_R   0.883043 0.377692 0.500497 0.869442
C4    C     C_R   0.882130 0.621400 0.499589 0.872525
Zn1   Zn    Zn3+2 0.500010 0.000000 0.653130 0.936891
Zn2   Zn    Zn3+2 0.000010 0.500000 0.653130 0.936936
Zn3   Zn    Zn3+2 0.499980 0.000000 0.346870 0.947910
Zn4   Zn    Zn3+2 0.999980 0.500000 0.346870 0.948006
O9    O     O_R   0.591620 0.091610 0.614640 -0.609854
O10   O     O_R   0.591620 0.908390 0.614640 -0.633675
O11   O     O_R   0.091620 0.591610 0.614640 -0.609859
O12   O     O_R   0.091620 0.408390 0.614640 -0.633735
O13   O     O_R   0.591610 0.091610 0.385310 -0.630730
O14   O     O_R   0.591610 0.908390 0.385310 -0.605047
O15   O     O_R   0.091610 0.591610 0.385310 -0.630702
O16   O     O_R   0.091610 0.408390 0.385310 -0.605207
C5    C     C_R   0.622338 0.117025 0.499598 0.840804
C6    C     C_R   0.621486 0.882114 0.500389 0.846106
C7    C     C_R   0.122377 0.616984 0.499591 0.840739
C8    C     C_R   0.121556 0.382185 0.500397 0.846093
H1    H     H_    0.228905 0.116824 0.623885 0.143920
H2    H     H_    0.238491 0.873245 0.354351 0.190673
H3    H     H_    0.728097 0.616015 0.621776 0.143718
H4    H     H_    0.738054 0.373683 0.355217 0.190738
C9    C     C_R   0.421447 0.288161 0.366062 -0.202970
C10   C     C_R   0.415597 0.716752 0.657315 -0.184053
C11   C     C_R   0.922009 0.788641 0.368426 -0.202655
C12   C     C_R   0.915902 0.216512 0.656290 -0.183547
H5    H     H_    0.473764 0.239210 0.363476 0.150891
H6    H     H_    0.467826 0.765564 0.661726 0.156698
H7    H     H_    0.974325 0.739681 0.366017 0.150260
H8    H     H_    0.968153 0.265308 0.660522 0.156313
C13   C     C_R   0.438321 0.369220 0.304411 -0.099493
C14   C     C_R   0.429106 0.638728 0.729348 -0.120550
C15   C     C_R   0.939200 0.869980 0.307843 -0.099330
C16   C     C_R   0.929563 0.138369 0.727953 -0.120289
H9    H     H_    0.501963 0.380966 0.255217 0.189030
H10   H     H_    0.489782 0.629508 0.787712 0.156371
H11   H     H_    0.003125 0.881978 0.259614 0.189348
H12   H     H_    0.990395 0.129021 0.785900 0.155979
C17   C     C_R   0.874611 0.936082 0.310797 -0.095192
C18   C     C_R   0.865762 0.071815 0.723268 -0.114141
C19   C     C_R   0.373810 0.435384 0.307585 -0.095726
C20   C     C_R   0.365378 0.572117 0.724469 -0.114567
H13   H     H_    0.888374 0.999521 0.265014 0.168994
H14   H     H_    0.877070 0.010637 0.777250 0.150741
H15   H     H_    0.387354 0.498625 0.261020 0.168734
H16   H     H_    0.376590 0.511018 0.778710 0.150553
C21   C     C_R   0.792525 0.920891 0.373843 -0.213008
C22   C     C_R   0.787773 0.083482 0.647814 -0.196415
C23   C     C_R   0.292101 0.420517 0.371878 -0.212616
C24   C     C_R   0.287594 0.583618 0.648485 -0.195892
H17   H     H_    0.745052 0.974662 0.376391 0.143104
H18   H     H_    0.741454 0.028929 0.643768 0.145600
H19   H     H_    0.244741 0.474378 0.374654 0.143379
H20   H     H_    0.241357 0.529004 0.644263 0.145517
C25   C     C_R   0.773804 0.838399 0.434733 0.096194
C26   C     C_R   0.772085 0.163060 0.576424 0.098185
C27   C     C_R   0.273637 0.338261 0.433716 0.096620
C28   C     C_R   0.272022 0.663102 0.576790 0.098633
C29   C     C_R   0.338963 0.271840 0.431537 0.103278
C30   C     C_R   0.337013 0.729801 0.579789 0.107286
C31   C     C_R   0.839170 0.772017 0.432673 0.103095
C32   C     C_R   0.837113 0.229723 0.579317 0.107204
C33   C     C_R   0.320292 0.191820 0.498997 -0.081629
C34   C     C_R   0.322075 0.806343 0.500980 -0.106960
C35   C     C_R   0.820166 0.691689 0.499009 -0.081578
C36   C     C_R   0.822002 0.306417 0.500961 -0.106869
C37   C     C_R   0.241635 0.178267 0.570987 -0.162701
C38   C     C_R   0.248126 0.815208 0.416728 -0.191794
C39   C     C_R   0.741090 0.677734 0.569780 -0.162050
C40   C     C_R   0.747827 0.315500 0.417221 -0.192142
H21   H     H_    0.615237 0.730137 0.624263 0.141728
H22   H     H_    0.626012 0.259996 0.352001 0.154436
H23   H     H_    0.116140 0.230962 0.626515 0.142059
H24   H     H_    0.126521 0.759537 0.351025 0.154730
C41   C     C_R   0.677294 0.742225 0.571166 -0.180799
C42   C     C_R   0.684275 0.251120 0.415597 -0.195738
C43   C     C_R   0.177871 0.242770 0.572429 -0.181518
C44   C     C_R   0.184599 0.750816 0.415058 -0.196443
C45   C     C_R   0.692421 0.820571 0.501602 -0.094321
C46   C     C_R   0.694427 0.177398 0.498021 -0.103906
C47   C     C_R   0.192583 0.320733 0.501670 -0.094564
C48   C     C_R   0.194527 0.677295 0.497966 -0.104059
C49   C     C_R   0.336058 0.003751 0.139224 -0.251020
C50   C     C_R   0.836056 0.503795 0.139220 -0.250828
H25   H     H_    0.332106 0.002421 0.245792 0.233828
H26   H     H_    0.832099 0.502435 0.245788 0.233685
C51   C     C_R   0.254394 0.007104 0.069562 0.334477
C52   C     C_R   0.754397 0.507209 0.069552 0.334372
C53   C     C_R   0.255512 0.005153 0.929447 -0.275192
C54   C     C_R   0.755515 0.505247 0.929438 -0.275082
H27   H     H_    0.193526 0.006829 0.872624 0.189508
H28   H     H_    0.693531 0.506955 0.872612 0.189526
C55   C     C_R   0.336302 0.001632 0.860135 -0.216420
C56   C     C_R   0.836302 0.501675 0.860130 -0.216140
H29   H     H_    0.330777 0.999622 0.753539 0.221038
H30   H     H_    0.830775 0.499645 0.753534 0.220980
C57   C     C_R   0.419296 0.001050 0.927688 0.182396
C58   C     C_R   0.919296 0.501071 0.927686 0.182342
C59   C     C_R   0.419255 0.001509 0.071934 0.121187
C60   C     C_R   0.919254 0.501529 0.071933 0.121253
N1    N     N_R   0.498810 0.000000 0.142780 -0.111881
N2    N     N_R   0.998810 0.500000 0.142780 -0.111803
C61   C     C_R   0.577199 0.998702 0.071568 -0.088477
C62   C     C_R   0.077199 0.498681 0.071568 -0.088427
H31   H     H_    0.640306 0.997926 0.875127 0.144479
H32   H     H_    0.140305 0.497887 0.875129 0.144324
C63   C     C_R   0.577162 0.998837 0.928592 -0.099746
C64   C     C_R   0.077162 0.498815 0.928593 -0.099711
N3    N     N_R   0.498740 0.000000 0.857170 -0.116419
N4    N     N_R   0.998740 0.500000 0.857170 -0.116370
H33   H     H_    0.640364 0.997647 0.125200 0.145456
H34   H     H_    0.140364 0.497609 0.125199 0.145178
N5    N     N_R   0.170599 0.012774 0.141133 0.201646
O17   O     O_R   0.169282 0.027511 0.270009 -0.441011
O18   O     O_R   0.094696 0.006755 0.077112 -0.430846
N6    N     N_R   0.670605 0.512960 0.141115 0.201835
O19   O     O_R   0.669297 0.527786 0.269965 -0.440601
O20   O     O_R   0.594699 0.506981 0.077092 -0.431305

loop_
_geom_bond_atom_site_label_1
_geom_bond_atom_site_label_2
_geom_bond_distance
_ccdc_geom_bond_type
C22   H18   1.080686 S    
H23   C43   1.081050 S    
N6    O19   1.301747 A    
C43   C47   1.390647 A    
C58   N4    1.377336 A    
C53   C55   1.389699 A    
O10   C6    1.286054 A    
C56   C58   1.407561 A    
C32   C36   1.414198 A    
C56   H30   1.062908 S    
N5    O17   1.301751 A    
C26   C46   1.411013 A    
C6    C45   1.411144 S    
C25   C45   1.409943 A    
C5    C46   1.414269 S    
C18   H14   1.082585 S    
Zn1   O10   1.988794 S    
C3    C36   1.415695 S    
C63   N3    1.367564 A    
C2    C33   1.411637 S    
N5    O18   1.301701 A    
C50   C52   1.401065 A    
C38   C44   1.363048 A    
C54   C56   1.389687 A    
C17   C21   1.394540 A    
C14   H10   1.082746 S    
C57   N3    1.377343 A    
C21   H17   1.080956 S    
O2    Zn1   1.984284 S    
C40   C42   1.363161 A    
C20   C24   1.393656 A    
C51   C53   1.392800 A    
O6    Zn3   1.988900 S    
C22   C26   1.416228 A    
Zn3   O14   1.984280 S    
C26   C32   1.403708 A    
C12   C32   1.414751 A    
C44   C48   1.390565 A    
C58   C60   1.433261 A    
H31   C63   1.081889 S    
C10   C14   1.394424 A    
Zn4   O16   1.984280 S    
C30   C34   1.414351 A    
C36   C40   1.389744 A    
C29   C33   1.412033 A    
O15   C7    1.286324 A    
O4    C4    1.287147 A    
O11   C7    1.288611 A    
C10   C30   1.414850 A    
C9    C29   1.413577 A    
C23   C27   1.415919 A    
C11   C31   1.413461 A    
O8    Zn4   1.988900 S    
C57   C59   1.433254 A    
N2    C62   1.367440 A    
Zn1   N3    2.027392 S    
O7    C3    1.289156 A    
C19   C23   1.394439 A    
C60   N2    1.379175 A    
C27   C47   1.409994 A    
C18   C22   1.393676 A    
Zn3   N1    2.027839 S    
C12   H8    1.077376 S    
O1    C1    1.286561 A    
C55   H29   1.062900 S    
C42   C46   1.390545 A    
C41   C45   1.390720 A    
C15   C17   1.391337 A    
O12   C8    1.286008 A    
C25   C31   1.402216 A    
C50   C60   1.410667 A    
C9    H5    1.077808 S    
C27   C29   1.402263 A    
H2    C38   1.083291 S    
C11   H7    1.077840 S    
O5    C1    1.289259 A    
Zn2   O12   1.988794 S    
H4    C40   1.083271 S    
C52   N6    1.441409 S    
O8    C4    1.286206 A    
C54   H28   1.083001 S    
C61   H33   1.081977 S    
C7    C48   1.414349 S    
N1    C61   1.367440 A    
C13   H9    1.082523 S    
C50   H26   1.060581 S    
C37   C43   1.364995 A    
C62   C64   1.420547 A    
O3    Zn2   1.990778 S    
C61   C63   1.420551 A    
O7    Zn4   1.987197 S    
C53   H27   1.083000 S    
Zn4   O15   1.990772 S    
C52   C54   1.392796 A    
C34   C38   1.389804 A    
C12   C16   1.394423 A    
O1    Zn1   1.990778 S    
C1    C34   1.415805 S    
O2    C2    1.287268 A    
C49   C51   1.401058 A    
C39   C41   1.365185 A    
C11   C15   1.394701 A    
Zn4   N2    2.027839 S    
O16   C8    1.287303 A    
C16   C18   1.390470 A    
O13   C5    1.286375 A    
N6    O20   1.301700 A    
C10   H6    1.077374 S    
Zn2   O11   1.987088 S    
H24   C44   1.081695 S    
C21   C25   1.415847 A    
O6    C2    1.286193 A    
H3    C39   1.084950 S    
C23   H19   1.080942 S    
Zn2   N4    2.027392 S    
Zn1   O9    1.987088 S    
C24   H20   1.080695 S    
C9    C13   1.394638 A    
C59   N1    1.379162 A    
O9    C5    1.288517 A    
C51   N5    1.441416 S    
H22   C42   1.081661 S    
C31   C35   1.411865 A    
C49   H25   1.060567 S    
C35   C39   1.389436 A    
C17   H13   1.082660 S    
C28   C48   1.410998 A    
H32   C64   1.081884 S    
C8    C47   1.411256 S    
C19   H15   1.082626 S    
O4    Zn2   1.984284 S    
C64   N4    1.367566 A    
O5    Zn3   1.987197 S    
O3    C3    1.286592 A    
C62   H34   1.081973 S    
C20   H16   1.082589 S    
Zn3   O13   1.990772 S    
H1    C37   1.084888 S    
C24   C28   1.416232 A    
C28   C30   1.403754 A    
O14   C6    1.287196 A    
C4    C35   1.411479 S    
C49   C59   1.410653 A    
C33   C37   1.389421 A    
C55   C57   1.407552 A    
C15   H11   1.082584 S    
C13   C19   1.391272 A    
H21   C41   1.081079 S    
C16   H12   1.082735 S    
C14   C20   1.390436 A    
