data_str_m2_o10_o28_f0_pcu.sym.89
_audit_creation_date              2012-12-10T16:50:19-0500
_audit_creation_method            fapswitch 2.2
_symmetry_space_group_name_H-M    P1
_symmetry_Int_Tables_number       1
_space_group_crystal_system       triclinic
_cell_length_a                    23.536892
_cell_length_b                    8.879789
_cell_length_c                    7.438799
_cell_angle_alpha                 103.371227
_cell_angle_beta                  93.434283
_cell_angle_gamma                 92.4483
_cell_volume                      1507.30297275

loop_
_atom_site_label
_atom_site_type_symbol
_atom_type_description
_atom_site_fract_x
_atom_site_fract_y
_atom_site_fract_z
_atom_type_partial_charge
C1    C     C_R   0.497853 0.200530 0.453297 0.853403
C2    C     C_R   0.499080 0.799449 0.545788 0.835444
C3    C     C_R   0.238243 0.552095 0.633674 -0.124780
C4    C     C_R   0.760475 0.389733 0.514482 -0.131236
C5    C     C_R   0.297787 0.561383 0.649003 0.084950
C6    C     C_R   0.701195 0.380482 0.513581 0.076955
C7    C     C_R   0.327772 0.475774 0.502275 -0.123845
C8    C     C_R   0.670630 0.507431 0.487556 -0.072695
C9    C     C_R   0.295826 0.378789 0.345667 0.057877
C10   C     C_R   0.699260 0.637815 0.447343 0.042817
C11   C     C_R   0.236994 0.399076 0.319008 0.003327
C12   C     C_R   0.758130 0.633426 0.419013 -0.008139
C13   C     C_R   0.207521 0.479275 0.467664 0.226072
C14   C     C_R   0.789418 0.512519 0.462649 0.227902
C15   C     C_2   0.498070 0.034140 0.424557 -0.050442
C16   C     C_2   0.490069 0.963862 0.567589 -0.061214
C17   C     C_R   0.390849 0.492875 0.502235 0.780737
C18   C     C_R   0.608582 0.501896 0.496535 0.833639
C19   C     C_R   0.884834 0.637687 0.546936 0.555946
C20   C     C_R   0.112338 0.350223 0.400144 0.565783
C21   C     C_R   0.874178 0.379529 0.358232 0.543269
C22   C     C_R   0.122232 0.625881 0.508116 0.539267
C23   C     C_R   0.933469 0.369148 0.364422 -0.015207
C24   C     C_R   0.063065 0.633044 0.516701 -0.013970
C25   C     C_R   0.968482 0.502124 0.447856 -0.017405
C26   C     C_R   0.028196 0.496860 0.448118 -0.018187
C27   C     C_R   0.943991 0.639648 0.533785 -0.015659
C28   C     C_R   0.052876 0.354899 0.382746 -0.018584
C29   C     C_R   0.958469 0.229218 0.290968 -0.155014
C30   C     C_R   0.038069 0.772202 0.593638 -0.154030
C31   C     C_R   0.017607 0.221120 0.305036 -0.163221
C32   C     C_R   0.979195 0.774400 0.607060 -0.163458
Cu1   Cu    Cu3+1 0.506340 0.517380 0.684380 0.918920
Cu2   Cu    Cu3+1 0.493660 0.482620 0.315620 0.913350
H1    H     H_    0.932433 0.124711 0.227592 0.199431
H2    H     H_    0.063998 0.878520 0.648639 0.199075
H3    H     H_    0.035588 0.110645 0.252043 0.190872
H4    H     H_    0.961304 0.882323 0.671906 0.189994
H5    H     H_    0.215307 0.608975 0.750259 0.172846
H6    H     H_    0.784295 0.296209 0.546106 0.175932
H7    H     H_    0.453194 0.387184 0.950423 0.227376
H8    H     H_    0.547570 0.610533 0.048779 0.219732
N1    N     N_R   0.850624 0.511128 0.453152 -0.455750
N2    N     N_R   0.146143 0.485266 0.454792 -0.455878
N3    N     N_2   0.484110 0.456420 0.038520 -0.226233
N4    N     N_2   0.515890 0.543580 0.961480 -0.223937
O1    O     O_R   0.504120 0.286130 0.619770 -0.590275
O2    O     O_R   0.495880 0.713870 0.380230 -0.578453
O3    O     O_R   0.493410 0.256770 0.308360 -0.599639
O4    O     O_R   0.506590 0.743230 0.691640 -0.601306
O5    O     O_R   0.423230 0.514630 0.655730 -0.584442
O6    O     O_R   0.576770 0.485370 0.344270 -0.594925
O7    O     O_R   0.412530 0.485280 0.344320 -0.591886
O8    O     O_R   0.587470 0.514720 0.655680 -0.585758
O9    O     O_2   0.861927 0.760234 0.655312 -0.531320
O10   O     O_2   0.136003 0.211579 0.366066 -0.526803
O11   O     O_2   0.840407 0.258776 0.258312 -0.531146
O12   O     O_2   0.155573 0.758488 0.553483 -0.531997
C33   C     C_3   0.326187 0.661940 0.826290 -0.397138
C34   C     C_3   0.332077 0.568294 0.973684 -0.765988
H9    H     H_    0.289449 0.523079 0.999574 0.240109
H10   H     H_    0.359091 0.469287 0.928105 0.252239
H11   H     H_    0.351148 0.642425 0.105677 0.241942
H12   H     H_    0.367617 0.715770 0.804182 0.213611
H13   H     H_    0.299752 0.761472 0.878482 0.201654
C35   C     C_3   0.671225 0.229591 0.524813 -0.399630
C36   C     C_3   0.646833 0.141381 0.332180 -0.840111
H14   H     H_    0.619246 0.213735 0.265236 0.260394
H15   H     H_    0.682003 0.103211 0.242136 0.271864
H16   H     H_    0.620443 0.038373 0.343135 0.224548
H17   H     H_    0.701515 0.155705 0.579555 0.219124
H18   H     H_    0.636771 0.250706 0.621686 0.208883
C37   C     C_3   0.321954 0.244849 0.214772 -0.418021
C38   C     C_3   0.296058 0.088242 0.232083 -0.777224
H19   H     H_    0.303216 0.075828 0.376822 0.258726
H20   H     H_    0.249650 0.075467 0.191933 0.287608
H21   H     H_    0.316698 0.993183 0.139393 0.222492
H22   H     H_    0.315232 0.255819 0.069496 0.204187
H23   H     H_    0.368300 0.239935 0.244498 0.224905
C39   C     C_3   0.667256 0.782406 0.444222 -0.422959
C40   C     C_3   0.656326 0.868910 0.641229 -0.810501
H24   H     H_    0.635859 0.791394 0.718708 0.260056
H25   H     H_    0.697218 0.919422 0.718212 0.266506
H26   H     H_    0.627352 0.963341 0.636663 0.227976
H27   H     H_    0.691312 0.863175 0.379604 0.220537
H28   H     H_    0.626269 0.751771 0.359004 0.193794
C41   C     C_1   0.207492 0.342191 0.137533 0.273851
N5    N     N_1   0.184034 0.297078 0.992453 -0.256468
C42   C     C_1   0.786047 0.748443 0.338987 0.292354
N6    N     N_1   0.808312 0.840257 0.274877 -0.234580
C43   C     C_3   0.502799 0.947216 0.223352 -0.376580
C44   C     C_3   0.443750 0.878016 0.139389 -0.758546
H29   H     H_    0.419590 0.829379 0.238247 0.259195
H30   H     H_    0.418107 0.970111 0.103077 0.223277
H31   H     H_    0.448102 0.784780 0.014211 0.260711
H32   H     H_    0.518765 0.022906 0.135515 0.200077
H33   H     H_    0.536046 0.861914 0.209981 0.193116
C45   C     C_3   0.464851 0.043255 0.747509 -0.405682
C46   C     C_3   0.403755 0.088876 0.714407 -0.838300
H34   H     H_    0.401753 0.177394 0.631230 0.257602
H35   H     H_    0.376448 0.985043 0.641205 0.244686
H36   H     H_    0.386206 0.137286 0.849564 0.227943
H37   H     H_    0.461753 0.962706 0.838104 0.219863
H38   H     H_    0.492908 0.140312 0.831702 0.229819

loop_
_geom_bond_atom_site_label_1
_geom_bond_atom_site_label_2
_ccdc_geom_bond_type
C41   N5    T    
C37   C38   S    
C20   O10   S    
C17   O5    A    
C40   H24   S    
C18   O6    A    
N3    N4    D    
C33   H12   S    
C38   H20   S    
C34   H11   S    
C23   C29   A    
C24   C26   A    
C45   H37   S    
C34   H10   S    
H8    N4    S    
C39   H28   S    
C2    O4    A    
C20   N2    A    
C43   H32   S    
C21   N1    A    
C22   N2    A    
C46   H34   S    
C11   C41   S    
C7    C17   S    
C38   H21   S    
C37   H22   S    
C1    C15   S    
C32   H4    S    
C2    C16   S    
C3    C13   A    
C35   C36   S    
C3    H5    S    
C33   C34   S    
Cu1   N4    S    
C9    C37   S    
C40   H25   S    
C19   N1    A    
C35   H18   S    
C38   H19   S    
C5    C33   S    
C36   H14   S    
C4    H6    S    
C12   C42   S    
C4    C6    A    
C43   C44   S    
C5    C7    A    
C10   C39   S    
C1    O1    A    
C6    C8    A    
C20   C28   A    
C2    O2    A    
Cu1   O4    S    
C44   H31   S    
C8    C18   S    
C31   H3    S    
C34   H9    S    
C36   H15   S    
C21   O11   S    
C39   H27   S    
C35   H17   S    
C44   H30   S    
Cu1   Cu2   S    
C37   H23   S    
Cu2   N3    S    
C43   H33   S    
C9    C11   A    
C10   C12   A    
C46   H35   S    
C12   C14   A    
C21   C23   A    
C25   C27   A    
Cu1   O1    S    
C22   C24   A    
Cu2   O2    S    
C17   O7    A    
C40   H26   S    
C19   C27   A    
C19   O9    S    
Cu1   O8    S    
C7    C9    A    
Cu2   O3    S    
C27   C32   A    
Cu2   O6    S    
C28   C31   A    
C39   C40   S    
C3    C5    A    
C22   O12   S    
Cu1   O5    S    
C29   H1    S    
C26   C28   A    
C30   H2    S    
C36   H16   S    
C25   C26   A    
C29   C31   A    
C33   H13   S    
C30   C32   A    
C11   C13   A    
C16   C45   S    
C45   H38   S    
C44   H29   S    
C23   C25   A    
C4    C14   A    
C24   C30   A    
C18   O8    A    
C15   C43   S    
C6    C35   S    
C46   H36   S    
Cu2   O7    S    
C8    C10   A    
C45   C46   S    
H7    N3    S    
C42   N6    T    
C1    O3    A    
C13   N2    S    
C15   C16   D    
C14   N1    S    
