data_str_m3_o14_o16_f0_pcu.sym.126
_audit_creation_date              2012-12-10T17:42:36-0500
_audit_creation_method            fapswitch 2.2
_symmetry_space_group_name_H-M    P1
_symmetry_Int_Tables_number       1
_space_group_crystal_system       triclinic
_cell_length_a                    9.952188
_cell_length_b                    10.706305
_cell_length_c                    13.118619
_cell_angle_alpha                 94.352477
_cell_angle_beta                  69.752803
_cell_angle_gamma                 90.066604
_cell_volume                      1307.17840977

loop_
_atom_site_label
_atom_site_type_symbol
_atom_type_description
_atom_site_fract_x
_atom_site_fract_y
_atom_site_fract_z
_atom_type_partial_charge
C1    C     C_R   0.503494 0.738829 0.491119 0.863046
C2    C     C_R   0.434772 0.482669 0.982927 0.083314
C3    C     C_R   0.465069 0.445157 0.871894 0.081052
C4    C     C_R   0.546367 0.473232 0.025917 0.077595
C5    C     C_R   0.678557 0.411486 0.962615 0.176335
C6    C     C_R   0.697848 0.358866 0.858148 -0.245568
C7    C     C_R   0.591548 0.373626 0.813902 -0.200905
C8    C     C_R   0.530248 0.523839 0.130365 -0.290835
C9    C     C_R   0.762898 0.440298 0.114848 -0.127210
C10   C     C_R   0.369136 0.482456 0.821179 -0.127482
C11   C     C_R   0.345598 0.860862 0.365062 -0.190915
C12   C     C_R   0.420316 0.492483 0.703476 0.851619
C13   C     C_R   0.273008 0.922393 0.309114 -0.145823
C14   C     C_R   0.297894 0.047589 0.290852 -0.224272
C15   C     C_R   0.393300 0.112740 0.330892 0.004132
C16   C     C_R   0.445668 0.057867 0.405873 0.103805
C17   C     C_R   0.431652 0.927715 0.416099 0.079633
C18   C     C_R   0.512417 0.869552 0.471228 -0.112725
C19   C     C_R   0.610429 0.937606 0.505803 -0.216159
C20   C     C_R   0.608467 0.064782 0.509008 -0.227832
C21   C     C_R   0.518916 0.126005 0.466806 -0.079021
C22   C     C_R   0.793683 0.649991 0.673610 0.151448
C23   C     C_R   0.504895 0.259884 0.489856 0.916989
C24   C     C_R   0.834093 0.697081 0.761352 -0.217999
C25   C     C_R   0.974955 0.695885 0.753439 -0.247520
C26   C     C_R   0.076402 0.641272 0.660526 -0.158425
C27   C     C_R   0.038371 0.570279 0.580741 0.126350
C28   C     C_R   0.892455 0.572103 0.583174 0.151989
C29   C     C_R   0.963739 0.432496 0.422409 -0.136104
C30   C     C_R   0.106250 0.432456 0.422586 -0.116122
C31   C     C_R   0.580079 0.504632 0.296208 0.911314
C32   C     C_R   0.787810 0.399554 0.006346 -0.189257
C33   C     C_R   0.630545 0.496976 0.177932 -0.043357
C34   C     C_R   0.231146 0.527802 0.884788 -0.204308
C35   C     C_R   0.192563 0.545827 0.997256 -0.153419
C36   C     C_R   0.294024 0.527246 0.046143 -0.198908
H1    H     H_    0.842415 0.420081 0.150974 0.152940
H2    H     H_    0.335760 0.760751 0.362666 0.175726
H3    H     H_    0.206332 0.870071 0.271979 0.144370
H4    H     H_    0.254136 0.089669 0.236088 0.129549
H5    H     H_    0.674373 0.115240 0.548160 0.165028
H6    H     H_    0.939205 0.377081 0.358931 0.148799
H7    H     H_    0.757463 0.749908 0.830922 0.150343
H8    H     H_    0.006766 0.744662 0.816516 0.158868
H9    H     H_    0.184571 0.657883 0.652784 0.215394
H10   H     H_    0.795451 0.306735 0.810317 0.150624
H11   H     H_    0.187956 0.376799 0.359177 0.128453
H12   H     H_    0.889012 0.352735 0.958617 0.140014
H13   H     H_    0.436011 0.578574 0.179363 0.145456
H14   H     H_    0.154692 0.553126 0.847470 0.161643
H15   H     H_    0.258117 0.545467 0.133534 0.127599
H16   H     H_    0.085515 0.579842 0.046325 0.143335
H17   H     H_    0.609205 0.327585 0.733866 0.171316
H18   H     H_    0.684800 0.893860 0.535958 0.170236
N1    N     N_R   0.856860 0.501200 0.500990 -0.111247
N2    N     N_R   0.142450 0.501280 0.501020 -0.118477
O1    O     O_R   0.385310 0.683220 0.500000 -0.655455
O2    O     O_R   0.614640 0.683250 0.500010 -0.592373
O3    O     O_R   0.328400 0.499950 0.653610 -0.628099
O4    O     O_R   0.557730 0.499970 0.653620 -0.599903
O5    O     O_R   0.385360 0.316750 0.499990 -0.620673
O6    O     O_R   0.614690 0.316780 0.500000 -0.616276
O7    O     O_R   0.442270 0.500030 0.346380 -0.637919
O8    O     O_R   0.671600 0.500050 0.346390 -0.608954
Zn1   Zn    Zn3+2 0.346880 0.499980 0.499990 0.923525
Zn2   Zn    Zn3+2 0.653120 0.500020 0.500010 0.958885
C37   C     C_2   0.464172 0.218711 0.270081 0.392145
H19   H     H_    0.406522 0.278105 0.234811 0.057224
O9    O     O_2   0.592034 0.233292 0.250472 -0.597587
N3    N     N_3   0.663287 0.703928 0.673532 -0.366294
H20   H     H_    0.675012 0.800812 0.675515 0.143430
H21   H     H_    0.583266 0.690414 0.748210 0.173900

loop_
_geom_bond_atom_site_label_1
_geom_bond_atom_site_label_2
_ccdc_geom_bond_type
C11   H2    S    
C2    C4    A    
C24   C25   A    
O7    Zn1   S    
C16   C21   A    
C1    O1    A    
C29   H6    S    
C31   O7    A    
C32   H12   S    
C19   C20   A    
C9    C32   A    
C4    C8    A    
C5    C32   A    
C15   C37   S    
N1    Zn2   S    
C27   C28   A    
C31   C33   S    
C2    C3    A    
C1    C18   S    
O4    Zn2   S    
C10   C34   A    
C3    C10   A    
C22   C28   A    
C1    O2    A    
O3    Zn1   S    
C9    C33   A    
C11   C13   A    
C26   C27   A    
C29   C30   A    
C36   H15   S    
C10   C12   S    
C37   H19   S    
C31   O8    A    
C19   H18   S    
C9    H1    S    
C28   N1    A    
C22   N3    S    
C20   H5    S    
C6    C7    A    
C3    C7    A    
C8    C33   A    
C21   C23   S    
C6    H10   S    
C5    C6    A    
C22   C24   A    
C13   H3    S    
C34   H14   S    
C7    H17   S    
C14   H4    S    
C15   C16   A    
C12   O4    A    
O5    Zn1   S    
C30   H11   S    
C23   O5    A    
N3    H20   S    
C20   C21   A    
C25   H8    S    
C17   C18   A    
C34   C35   A    
C2    C36   A    
C35   H16   S    
C24   H7    S    
O6    Zn2   S    
C27   N2    A    
C18   C19   A    
N3    H21   S    
C14   C15   A    
C29   N1    A    
C26   H9    S    
C25   C26   A    
C13   C14   A    
C12   O3    A    
C30   N2    A    
C8    H13   S    
O2    Zn2   S    
C23   O6    A    
C11   C17   A    
N2    Zn1   S    
C16   C17   A    
O1    Zn1   S    
C4    C5    A    
C37   O9    D    
C35   C36   A    
O8    Zn2   S    
