data_str_m9_o11_o16_f0_sra.sym.5
_audit_creation_date              2012-12-11T14:17:46-0500
_audit_creation_method            fapswitch 2.2
_symmetry_space_group_name_H-M    P1
_symmetry_Int_Tables_number       1
_space_group_crystal_system       triclinic
_cell_length_a                    6.942476
_cell_length_b                    13.65138
_cell_length_c                    20.406998
_cell_angle_alpha                 102.173505
_cell_angle_beta                  89.728523
_cell_angle_gamma                 90.975655
_cell_volume                      1890.29491589

loop_
_atom_site_label
_atom_site_type_symbol
_atom_type_description
_atom_site_fract_x
_atom_site_fract_y
_atom_site_fract_z
_atom_type_partial_charge
O1    O     O_R   0.506860 0.599390 0.449240 -0.538634
O2    O     O_R   0.180220 0.594600 0.586780 -0.541940
O3    O     O_R   0.004500 0.400610 0.550760 -0.540248
C1    C     C_R   0.349190 0.616064 0.613435 0.768928
O4    O     O_R   0.177490 0.611290 0.451970 -0.540868
O5    O     O_R   0.001750 0.417420 0.414990 -0.541032
C2    C     C_R   0.347735 0.637830 0.435239 0.698298
O6    O     O_R   0.509610 0.582580 0.585010 -0.542441
O7    O     O_3   0.337420 0.436370 0.488020 -0.374699
V1    V     V_3+5 0.064680 0.511800 0.502220 1.426955
O8    O     O_R   0.671710 0.405400 0.413220 -0.548725
C3    C     C_R   0.839774 0.384407 0.386387 0.731762
O9    O     O_R   0.674440 0.388710 0.548030 -0.541529
C4    C     C_R   0.841773 0.361918 0.564690 0.696772
V2    V     V_3+5 0.564010 0.488200 0.497780 1.417144
O10   O     O_3   0.841140 0.563630 0.511980 -0.368720
C5    C     C_R   0.786910 0.112352 0.612242 -0.110364
H1    H     H_    0.779460 0.163737 0.520005 0.115377
H2    H     H_    0.755256 0.035859 0.586776 0.163131
C6    C     C_R   0.843775 0.284186 0.604171 -0.027942
C7    C     C_R   0.903243 0.313705 0.927079 -0.169723
C8    C     C_R   0.915569 0.388986 0.890894 -0.120589
C9    C     C_R   0.896919 0.366203 0.821387 -0.136955
C10   C     C_R   0.864057 0.266254 0.785901 0.074935
C11   C     C_R   0.846603 0.189750 0.823580 0.023218
C12   C     C_R   0.848107 0.239968 0.714504 0.006648
C13   C     C_R   0.808686 0.138358 0.682436 0.100196
C14   C     C_R   0.789383 0.063991 0.720418 0.334406
C15   C     C_R   0.810347 0.090080 0.790181 -0.278572
C16   C     C_R   0.868411 0.311469 0.673593 -0.190691
C17   C     C_R   0.801880 0.184909 0.573693 -0.206952
C18   C     C_R   0.868219 0.214447 0.894307 -0.056629
H3    H     H_    0.898814 0.389557 0.693924 0.093450
H4    H     H_    0.921987 0.332826 0.980996 0.099298
H5    H     H_    0.908666 0.428927 0.797246 0.104503
H6    H     H_    0.941684 0.465762 0.916882 0.117951
H7    H     H_    0.796674 0.031300 0.818246 0.138817
C19   C     C_2   0.004565 0.293286 0.283371 -0.139392
C20   C     C_2   0.842220 0.316283 0.319512 -0.298171
H8    H     H_    0.140850 0.325826 0.303877 0.129179
H9    H     H_    0.704227 0.285426 0.300154 0.133528
C21   C     C_2   0.013155 0.224821 0.215931 -0.143097
C22   C     C_2   0.858244 0.183268 0.180358 -0.283981
H10   H     H_    0.155880 0.209189 0.194690 0.124010
H11   H     H_    0.714041 0.198514 0.199832 0.128273
C23   C     C_2   0.198226 0.790019 0.782261 0.391146
C24   C     C_2   0.359137 0.815043 0.819708 -0.318887
H12   H     H_    0.496514 0.783601 0.801809 0.083547
C25   C     C_2   0.201589 0.718633 0.715201 -0.221101
C26   C     C_2   0.361101 0.685381 0.679763 -0.335920
H13   H     H_    0.062228 0.693300 0.693514 0.140094
H14   H     H_    0.503810 0.709250 0.698352 0.127737
C27   C     C_R   0.456883 0.882585 0.386859 -0.122407
H15   H     H_    0.455525 0.830891 0.478995 0.118266
H16   H     H_    0.505489 0.956814 0.411836 0.156716
C28   C     C_R   0.363393 0.715035 0.395657 -0.028728
C29   C     C_R   0.294819 0.689443 0.073445 -0.164294
C30   C     C_R   0.265498 0.615289 0.109800 -0.123211
C31   C     C_R   0.288195 0.636929 0.179153 -0.136179
C32   C     C_R   0.342336 0.734498 0.214285 0.075809
C33   C     C_R   0.375744 0.809822 0.176456 0.009615
C34   C     C_R   0.365307 0.759432 0.285461 0.012831
C35   C     C_R   0.426708 0.858132 0.317063 0.051057
C36   C     C_R   0.457071 0.931489 0.278992 0.393916
C37   C     C_R   0.432294 0.907116 0.209602 -0.294370
C38   C     C_R   0.331318 0.689326 0.326574 -0.186501
C39   C     C_R   0.427464 0.811228 0.425598 -0.189945
C40   C     C_R   0.350331 0.786276 0.105908 -0.045428
H17   H     H_    0.283741 0.613426 0.306652 0.091373
H18   H     H_    0.273065 0.671428 0.019653 0.101450
H19   H     H_    0.262737 0.575198 0.203459 0.103286
H20   H     H_    0.223260 0.540364 0.084066 0.116051
H21   H     H_    0.460453 0.965375 0.181944 0.132246
O11   O     O_R   0.203230 0.917310 0.915020 -0.501077
O12   O     O_R   0.535500 0.888690 0.048040 -0.543061
O13   O     O_R   0.711080 0.082610 0.085000 -0.547650
C41   C     C_R   0.365486 0.863066 0.065581 0.678215
O14   O     O_R   0.532630 0.905370 0.913230 -0.550828
O15   O     O_R   0.708190 0.099410 0.949230 -0.542437
C42   C     C_R   0.363778 0.884217 0.886389 0.778580
O16   O     O_R   0.206120 0.900510 0.050790 -0.541298
O17   O     O_3   0.375360 0.063570 0.011990 -0.381335
V3    V     V_3+5 0.648170 0.988200 0.997780 1.439843
O18   O     O_R   0.038240 0.111390 0.951940 -0.539630
C43   C     C_R   0.870914 0.137263 0.934579 0.696250
O19   O     O_R   0.041120 0.094710 0.086750 -0.546234
C44   C     C_R   0.872434 0.115799 0.113510 0.729845
V4    V     V_3+5 0.148810 0.011930 0.002180 1.458929
O20   O     O_3   0.871750 0.936430 0.988010 -0.359943
O21   O     O_3   0.024426 0.830222 0.807267 -0.635999
H22   H     H_    0.921122 0.804436 0.774524 0.265825
O22   O     O_3   0.523328 0.026213 0.309661 -0.557703
C45   C     C_3   0.374438 0.096484 0.312525 0.070038
H23   H     H_    0.226178 0.062474 0.308740 0.126631
H24   H     H_    0.394599 0.136886 0.271011 0.120014
C46   C     C_3   0.387347 0.171692 0.379104 -0.683515
H25   H     H_    0.533003 0.207055 0.385421 0.220688
H26   H     H_    0.278595 0.230822 0.381038 0.184124
H27   H     H_    0.359538 0.133158 0.421090 0.205607
O23   O     O_3   0.749798 0.965974 0.688329 -0.653043
H28   H     H_    0.735059 0.923782 0.722131 0.286115

loop_
_geom_bond_atom_site_label_1
_geom_bond_atom_site_label_2
_ccdc_geom_bond_type
O15   V3    S    
C45   H23   S    
C1    O6    A    
C30   H20   S    
O21   H22   S    
C20   H9    S    
C6    C16   A    
C23   C25   S    
C12   C13   A    
C24   C42   S    
C14   C15   A    
C10   C12   A    
C19   C21   S    
O5    C3    A    
C19   C20   D    
O19   V4    S    
C38   H17   S    
V2    O10   S    
C46   H27   S    
C37   H21   S    
C32   C34   A    
O23   H28   S    
O8    V2    S    
O14   V3    S    
C25   H13   S    
C46   H26   S    
C26   H14   S    
C9    C10   A    
O1    V2    S    
C29   H18   S    
O7    V1    S    
O17   V4    S    
C14   O23   S    
C11   C18   A    
C31   C32   A    
C45   H24   S    
O11   C42   A    
O9    C4    A    
C21   H10   S    
C2    C28   S    
O13   V3    S    
C27   H16   S    
C11   C15   A    
V3    O20   S    
C7    C18   A    
C34   C38   A    
C5    C13   A    
C4    C6    S    
O18   C43   A    
O4    C2    A    
O19   C44   A    
C7    H4    S    
C30   C31   A    
O17   V3    S    
C1    C26   S    
C32   C33   A    
O2    C1    A    
C34   C35   A    
O12   C41   A    
C24   H12   S    
C41   O16   A    
C46   H25   S    
C10   C11   A    
C22   H11   S    
O13   C44   A    
O3    C4    A    
C12   C16   A    
C45   C46   S    
C9    H5    S    
O9    V2    S    
C5    C17   A    
C21   C22   D    
C36   O22   S    
C29   C40   A    
O2    V1    S    
O15   C43   A    
C40   C41   S    
C23   C24   D    
C16   H3    S    
O1    C2    A    
O18   V4    S    
O5    V1    S    
O8    C3    A    
C23   O21   S    
O6    V2    S    
C28   C39   A    
C8    H6    S    
C22   C44   S    
C36   C37   A    
C3    C20   S    
O7    V2    S    
O4    V1    S    
H15   C39   S    
O3    V1    S    
V1    O10   S    
C19   H8    S    
C27   C35   A    
C33   C40   A    
O12   V3    S    
C29   C30   A    
C28   C38   A    
C18   C43   S    
O22   C45   S    
C5    H2    S    
O14   C42   A    
C27   C39   A    
O16   V4    S    
C35   C36   A    
C33   C37   A    
V4    O20   S    
C25   C26   D    
C15   H7    S    
C13   C14   A    
C8    C9    A    
H1    C17   S    
O11   V4    S    
C7    C8    A    
C31   H19   S    
C6    C17   A    
