data_str_m9_o6_o16_f0_sra.sym.43
_audit_creation_date              2012-12-11T17:23:11-0500
_audit_creation_method            fapswitch 2.2
_symmetry_space_group_name_H-M    P1
_symmetry_Int_Tables_number       1
_space_group_crystal_system       triclinic
_cell_length_a                    22.430407
_cell_length_b                    7.089172
_cell_length_c                    19.485368
_cell_angle_alpha                 89.954975
_cell_angle_beta                  99.176944
_cell_angle_gamma                 89.968954
_cell_volume                      3058.76718727

loop_
_atom_site_label
_atom_site_type_symbol
_atom_type_description
_atom_site_fract_x
_atom_site_fract_y
_atom_site_fract_z
_atom_type_partial_charge
O1    O     O_R   0.443980 0.494320 0.557430 -0.534718
O2    O     O_R   0.556020 0.994320 0.442570 -0.531557
O3    O     O_R   0.441210 0.822520 0.414610 -0.535425
O4    O     O_R   0.558790 0.322520 0.585390 -0.543053
C1    C     C_R   0.426994 0.655451 0.388956 0.694372
C2    C     C_R   0.572886 0.155146 0.611114 0.697895
O5    O     O_R   0.436920 0.823940 0.555180 -0.535785
O6    O     O_R   0.563080 0.323940 0.444820 -0.538213
O7    O     O_R   0.551700 0.995760 0.584140 -0.533953
O8    O     O_R   0.448300 0.495760 0.415860 -0.539625
C3    C     C_R   0.421827 0.655446 0.575155 0.712705
C4    C     C_R   0.578224 0.155444 0.424913 0.718045
O9    O     O_3   0.537660 0.661290 0.509340 -0.370512
O10   O     O_3   0.462340 0.161290 0.490660 -0.369971
V1    V     V_3+5 0.493010 0.935560 0.498270 1.418080
V2    V     V_3+5 0.506990 0.435560 0.501730 1.407584
H1    H     H_    0.681870 0.841402 0.259640 0.121385
H2    H     H_    0.318107 0.341123 0.740450 0.121044
C5    C     C_R   0.754006 0.950444 0.210367 -0.203761
C6    C     C_R   0.246028 0.450484 0.789741 -0.205418
H3    H     H_    0.757252 0.822351 0.180931 0.120443
H4    H     H_    0.242691 0.322212 0.819109 0.120411
C7    C     C_R   0.792631 0.102782 0.203519 0.115858
C8    C     C_R   0.207472 0.603072 0.796621 0.116065
C9    C     C_R   0.786731 0.270425 0.241581 0.150570
C10   C     C_R   0.213505 0.770971 0.758671 0.151612
C11   C     C_R   0.742868 0.279863 0.286124 -0.191007
C12   C     C_R   0.257451 0.780438 0.714230 -0.193487
H5    H     H_    0.738257 0.407484 0.315452 0.116443
H6    H     H_    0.262177 0.908260 0.684996 0.116300
C13   C     C_R   0.705137 0.125862 0.293454 0.109962
C14   C     C_R   0.295092 0.626153 0.706842 0.109784
C15   C     C_R   0.710839 0.961484 0.255055 -0.166679
C16   C     C_R   0.289233 0.461483 0.745103 -0.163904
C17   C     C_1   0.837893 0.084528 0.157677 -0.044751
C18   C     C_1   0.162151 0.584761 0.842386 -0.045019
C19   C     C_1   0.660571 0.137067 0.340189 -0.055207
C20   C     C_1   0.339656 0.637245 0.660102 -0.049909
C21   C     C_1   0.623280 0.146182 0.379075 -0.190039
C22   C     C_1   0.376891 0.646230 0.621144 -0.190901
C23   C     C_1   0.876311 0.072136 0.120345 -0.164765
C24   C     C_1   0.123703 0.572251 0.879674 -0.164755
C25   C     C_R   0.623413 0.137959 0.804978 -0.178598
C26   C     C_R   0.375319 0.672900 0.195219 -0.179936
H7    H     H_    0.601703 0.147740 0.850422 0.129555
H8    H     H_    0.396202 0.700560 0.150030 0.131459
C27   C     C_R   0.611550 0.146235 0.679789 -0.065835
C28   C     C_R   0.388355 0.648540 0.320230 -0.068363
C29   C     C_R   0.905347 0.070471 0.764193 -0.154141
C30   C     C_R   0.094998 0.561777 0.235851 -0.154266
C31   C     C_R   0.869129 0.077673 0.698935 0.185387
C32   C     C_R   0.131277 0.568983 0.301081 0.185580
C33   C     C_R   0.806589 0.090278 0.695057 -0.197820
C34   C     C_R   0.193667 0.586993 0.304865 -0.197896
C35   C     C_R   0.778116 0.095569 0.754927 0.034566
C36   C     C_R   0.221956 0.596330 0.244939 0.034575
C37   C     C_R   0.815470 0.085645 0.821970 -0.012503
C38   C     C_R   0.184485 0.590117 0.177906 -0.012157
C39   C     C_R   0.713537 0.112008 0.749242 0.054896
C40   C     C_R   0.286407 0.616111 0.250618 0.055600
C41   C     C_R   0.686650 0.113572 0.810577 0.016851
C42   C     C_R   0.312733 0.635682 0.189317 0.015883
C43   C     C_R   0.723020 0.092300 0.876494 0.139095
C44   C     C_R   0.276467 0.618794 0.123193 0.139117
C45   C     C_R   0.786427 0.086229 0.882108 0.124285
C46   C     C_R   0.213301 0.600341 0.117685 0.125139
C47   C     C_R   0.674317 0.127104 0.684114 -0.224736
C48   C     C_R   0.326033 0.617617 0.315707 -0.224253
C49   C     C_R   0.585898 0.153993 0.740828 0.133624
C50   C     C_R   0.413098 0.679716 0.259437 0.133394
C51   C     C_R   0.880290 0.074009 0.825430 -0.107859
C52   C     C_R   0.119806 0.572736 0.174542 -0.108021
H9    H     H_    0.690492 0.124650 0.635076 0.098344
H10   H     H_    0.310457 0.594752 0.364473 0.099517
H11   H     H_    0.953966 0.061366 0.768346 0.114807
H12   H     H_    0.046496 0.548185 0.231778 0.114925
H13   H     H_    0.781452 0.094999 0.643302 0.104594
H14   H     H_    0.218805 0.595848 0.356561 0.104647
O11   O     O_R   0.051730 0.724670 0.084120 -0.536091
O12   O     O_R   0.948270 0.224670 0.915880 -0.535849
O13   O     O_R   0.063080 0.393540 0.944820 -0.539085
O14   O     O_R   0.936920 0.893540 0.055180 -0.539196
C53   C     C_R   0.077340 0.561965 0.923784 0.719367
C54   C     C_R   0.922655 0.061940 0.076207 0.719294
O15   O     O_R   0.058800 0.395030 0.085390 -0.538675
O16   O     O_R   0.941200 0.895030 0.914610 -0.538932
O17   O     O_R   0.943980 0.223310 0.057440 -0.534593
O18   O     O_R   0.056020 0.723310 0.942560 -0.534697
C55   C     C_R   0.074732 0.563948 0.109735 0.691159
C56   C     C_R   0.925286 0.064173 0.890268 0.691256
O19   O     O_3   0.962360 0.556290 0.990650 -0.370438
O20   O     O_3   0.037640 0.056290 0.009350 -0.370571
V3    V     V_3+5 0.006980 0.281990 0.001730 1.408667
V4    V     V_3+5 0.993020 0.781990 0.998270 1.407950
C57   C     C_3   0.894309 0.072905 0.630991 -0.353493
C58   C     C_3   0.962900 0.055425 0.637644 -0.782170
H15   H     H_    0.985317 0.178832 0.665864 0.225413
H16   H     H_    0.978610 0.922502 0.664907 0.230761
H17   H     H_    0.975889 0.051797 0.585002 0.224335
H18   H     H_    0.873789 0.951604 0.599633 0.179244
H19   H     H_    0.880208 0.203927 0.601395 0.179226
C59   C     C_3   0.106311 0.559157 0.369090 -0.353546
C60   C     C_3   0.037819 0.538753 0.362541 -0.781849
H20   H     H_    0.014857 0.662440 0.334957 0.225541
H21   H     H_    0.022592 0.406399 0.334691 0.230559
H22   H     H_    0.024970 0.532148 0.415217 0.224295
H23   H     H_    0.127480 0.437257 0.399686 0.179433
H24   H     H_    0.119854 0.689266 0.399416 0.179089
N1    N     N_3   0.819754 0.082978 0.950947 -0.695751
H25   H     H_    0.843275 0.955965 0.959012 0.232503
H26   H     H_    0.847040 0.202558 0.958976 0.239838
N2    N     N_3   0.179934 0.594689 0.048897 -0.696266
H27   H     H_    0.157684 0.465546 0.040927 0.230231
H28   H     H_    0.151477 0.711682 0.040876 0.242690
C61   C     C_3   0.825557 0.441609 0.234620 -0.367238
C62   C     C_3   0.889197 0.417074 0.274900 -0.748910
H29   H     H_    0.887486 0.395127 0.331010 0.230524
H30   H     H_    0.912430 0.295459 0.254938 0.226501
H31   H     H_    0.915786 0.546378 0.268961 0.215905
H32   H     H_    0.827617 0.469301 0.178897 0.182460
H33   H     H_    0.805476 0.568947 0.255088 0.178292
C63   C     C_3   0.174718 0.942353 0.765621 -0.366955
C64   C     C_3   0.111098 0.918478 0.725251 -0.749352
H34   H     H_    0.112870 0.896638 0.669162 0.230435
H35   H     H_    0.087773 0.797027 0.745192 0.226568
H36   H     H_    0.084559 0.048010 0.731112 0.216175
H37   H     H_    0.172613 0.969753 0.821338 0.182705
H38   H     H_    0.194861 0.069651 0.745198 0.178189
C65   C     C_3   0.518482 0.176514 0.739509 -0.377977
C66   C     C_3   0.488219 0.984910 0.743286 -0.735264
H39   H     H_    0.495696 0.895306 0.698724 0.231353
H40   H     H_    0.506748 0.912007 0.792573 0.219333
H41   H     H_    0.438859 0.004551 0.741386 0.214391
H42   H     H_    0.509923 0.264303 0.784192 0.173499
H43   H     H_    0.496807 0.251913 0.692075 0.179472
C67   C     C_3   0.479737 0.719272 0.260831 -0.370187
C68   C     C_3   0.490952 0.930022 0.253292 -0.729729
H44   H     H_    0.465984 0.983462 0.203222 0.217966
H45   H     H_    0.476169 0.009090 0.296824 0.231296
H46   H     H_    0.539929 0.955290 0.254261 0.213215
H47   H     H_    0.507578 0.667783 0.309480 0.174298
H48   H     H_    0.496010 0.642213 0.217700 0.170939
C69   C     C_3   0.695178 0.073922 0.942942 -0.308497
C70   C     C_3   0.685472 0.267098 0.973994 -0.742096
H49   H     H_    0.729401 0.340606 0.988403 0.241578
H50   H     H_    0.655275 0.355764 0.936367 0.215028
H51   H     H_    0.664560 0.249299 0.021544 0.212073
H52   H     H_    0.652456 0.992492 0.934038 0.147801
H53   H     H_    0.724264 0.988349 0.982786 0.207755
C71   C     C_3   0.304313 0.616492 0.056447 -0.309232
C72   C     C_3   0.309312 0.815683 0.028032 -0.742072
H54   H     H_    0.263751 0.879975 0.014761 0.240651
H55   H     H_    0.337535 0.906215 0.066816 0.216430
H56   H     H_    0.330338 0.809820 0.980203 0.211482
H57   H     H_    0.348882 0.545097 0.064122 0.146725
H58   H     H_    0.277160 0.529325 0.015567 0.209219

loop_
_geom_bond_atom_site_label_1
_geom_bond_atom_site_label_2
_ccdc_geom_bond_type
C43   C45   A    
O14   V4    S    
C35   C39   A    
C11   H5    S    
C18   C24   T    
C57   C58   S    
O1    C3    A    
C54   O17   A    
O2    C4    A    
C2    O7    A    
N2    H28   S    
C64   H34   S    
O5    C3    A    
C68   H45   S    
C32   C59   S    
C8    C18   S    
C61   H33   S    
C5    H3    S    
C8    C10   A    
C9    C61   S    
C69   C70   S    
C64   H35   S    
C48   H10   S    
C61   C62   S    
C58   H17   S    
C62   H29   S    
C40   C42   A    
O6    V2    S    
C72   H56   S    
C63   H37   S    
C41   C43   A    
C30   C52   A    
C27   C49   A    
C42   C44   A    
O16   V4    S    
C39   C47   A    
C65   H43   S    
O15   V3    S    
C38   C46   A    
C6    C8    A    
C26   H8    S    
C29   C31   A    
C58   H16   S    
C30   C32   A    
C72   H54   S    
C29   H11   S    
C26   C50   A    
C66   H40   S    
C47   H9    S    
C14   C20   S    
C36   C38   A    
C6    C16   A    
O5    V1    S    
C53   O18   A    
C25   C49   A    
C71   H58   S    
C50   C67   S    
C59   C60   S    
H1    C15   S    
C70   H51   S    
C27   C47   A    
N2    H27   S    
O13   C53   A    
C32   C34   A    
O18   V4    S    
C33   C35   A    
C69   H52   S    
C1    C28   S    
C34   C36   A    
C39   C41   A    
C2    C27   S    
C11   C13   A    
C12   C14   A    
O11   V4    S    
C70   H50   S    
O16   C56   A    
C28   C50   A    
O15   C55   A    
C57   H18   S    
C70   H49   S    
C64   H36   S    
C26   C42   A    
C23   C54   S    
C37   C51   A    
C13   C19   S    
C44   C71   S    
C31   C33   A    
C14   C16   A    
O4    V2    S    
C5    C7    A    
C67   H47   S    
C30   H12   S    
O19   V3    S    
O13   V3    S    
O6    C4    A    
C58   H15   S    
C13   C15   A    
C59   H23   S    
C60   H21   S    
O1    V2    S    
C28   C48   A    
C59   H24   S    
O2    V1    S    
C25   H7    S    
C45   N1    S    
C67   H48   S    
O4    C2    A    
C6    H4    S    
O14   C54   A    
C71   H57   S    
C35   C37   A    
C5    C15   A    
C33   H13   S    
C66   H41   S    
O3    V1    S    
C25   C41   A    
C65   C66   S    
O10   V1    S    
C10   C12   A    
C24   C53   S    
C37   C45   A    
C67   C68   S    
O3    C1    A    
C9    C11   A    
C68   H44   S    
C7    C17   S    
C62   H31   S    
C4    C21   S    
N1    H26   S    
C66   H39   S    
C63   C64   S    
C1    O8    A    
C19   C21   T    
O8    V2    S    
N1    H25   S    
O19   V4    S    
C20   C22   T    
C52   C55   S    
C38   C52   A    
O20   V4    S    
C51   C56   S    
H2    C16   S    
C68   H46   S    
O17   V3    S    
C12   H6    S    
O20   V3    S    
C62   H30   S    
C60   H22   S    
C72   H55   S    
C63   H38   S    
C3    C22   S    
C17   C23   T    
O11   C55   A    
C65   H42   S    
C36   C40   A    
C69   H53   S    
C7    C9    A    
C40   C48   A    
C49   C65   S    
C61   H32   S    
C29   C51   A    
O9    V2    S    
C31   C57   S    
C60   H20   S    
C43   C69   S    
C71   C72   S    
C10   C63   S    
C46   N2    S    
O12   V3    S    
O12   C56   A    
C57   H19   S    
O7    V1    S    
C44   C46   A    
C34   H14   S    
