data_str_m3_o4_o16_f0_pcu.sym.61
_audit_creation_date              2012-12-10T20:30:14-0500
_audit_creation_method            fapswitch 2.2
_symmetry_space_group_name_H-M    P1
_symmetry_Int_Tables_number       1
_space_group_crystal_system       triclinic
_cell_length_a                    9.857643
_cell_length_b                    10.687099
_cell_length_c                    13.059034
_cell_angle_alpha                 90.088591
_cell_angle_beta                  71.35025
_cell_angle_gamma                 89.441312
_cell_volume                      1303.44647033

loop_
_atom_site_label
_atom_site_type_symbol
_atom_type_description
_atom_site_fract_x
_atom_site_fract_y
_atom_site_fract_z
_atom_type_partial_charge
C1    C     C_R   0.501223 0.740247 0.496282 0.918394
C2    C     C_R   0.380751 0.435439 0.814045 -0.131170
C3    C     C_R   0.392247 0.937865 0.467578 0.153529
C4    C     C_R   0.423461 0.481472 0.702069 0.879423
C5    C     C_R   0.509773 0.871598 0.477309 -0.098037
C6    C     C_R   0.639008 0.934024 0.464238 -0.196354
C7    C     C_R   0.639944 0.063440 0.463721 -0.223731
C8    C     C_R   0.511683 0.128848 0.476185 -0.099883
C9    C     C_R   0.393349 0.065663 0.466971 0.139528
C10   C     C_3   0.239225 0.076164 0.533684 -0.470436
C11   C     C_3   0.237993 0.934582 0.534816 -0.505427
C12   C     C_R   0.444523 0.399153 0.977152 0.088162
C13   C     C_R   0.890118 0.533236 0.590704 0.193108
C14   C     C_R   0.963675 0.448505 0.416846 -0.074746
C15   C     C_R   0.108115 0.450227 0.415956 -0.108739
C16   C     C_R   0.502478 0.259962 0.495659 0.855908
C17   C     C_R   0.032130 0.531722 0.591310 0.181935
C18   C     C_3   0.010914 0.652062 0.652229 -0.501589
C19   C     C_3   0.857421 0.654247 0.650405 -0.468332
C20   C     C_R   0.578440 0.501000 0.295372 0.959959
C21   C     C_R   0.800604 0.476666 0.000050 -0.307430
C22   C     C_R   0.624205 0.484881 0.177919 -0.191008
C23   C     C_R   0.484822 0.400938 0.863415 0.081097
C24   C     C_R   0.235245 0.431166 0.874769 -0.197924
C25   C     C_R   0.194078 0.403624 0.984324 -0.060478
C26   C     C_R   0.296691 0.393262 0.036623 -0.149513
C27   C     C_R   0.553939 0.415294 0.025062 0.096117
C28   C     C_R   0.698317 0.426090 0.958648 0.115237
C29   C     C_R   0.736163 0.392691 0.850184 -0.232894
C30   C     C_R   0.629491 0.374441 0.803837 -0.194857
C31   C     C_R   0.523136 0.433756 0.135485 -0.312840
C32   C     C_R   0.761384 0.516208 0.107810 0.456879
H1    H     H_    0.737112 0.111055 0.462140 0.169865
H2    H     H_    0.776976 0.643857 0.731863 0.219617
H3    H     H_    0.847481 0.387299 0.800099 0.142374
H4    H     H_    0.834948 0.731220 0.600731 0.210075
H5    H     H_    0.907299 0.494989 0.946112 0.163264
H6    H     H_    0.418573 0.412157 0.189691 0.169615
H7    H     H_    0.153437 0.449976 0.837699 0.149505
H8    H     H_    0.256875 0.381294 0.122989 0.134301
H9    H     H_    0.081719 0.396566 0.030022 0.176112
H10   H     H_    0.662548 0.344842 0.720263 0.179418
H11   H     H_    0.735878 0.884239 0.462763 0.166333
H12   H     H_    0.223112 0.118417 0.614679 0.208609
H13   H     H_    0.851265 0.766641 0.264267 0.379682
H14   H     H_    0.172613 0.117714 0.487704 0.204164
H15   H     H_    0.221812 0.895217 0.616602 0.208346
H16   H     H_    0.170189 0.894851 0.489478 0.209962
H17   H     H_    0.937768 0.406038 0.350472 0.179919
H18   H     H_    0.191449 0.411818 0.347355 0.142163
H19   H     H_    0.019019 0.640022 0.734636 0.211557
H20   H     H_    0.076841 0.727450 0.604072 0.215564
N1    N     N_R   0.856940 0.500860 0.500710 -0.113313
N2    N     N_R   0.142580 0.500820 0.500710 -0.104405
O1    O     O_R   0.385310 0.683210 0.499990 -0.610206
O2    O     O_2   0.969256 0.687186 0.048233 -0.298118
O3    O     O_3   0.780759 0.724254 0.236862 -0.556646
O4    O     O_R   0.614650 0.683240 0.500000 -0.606936
O5    O     O_R   0.328390 0.499940 0.653610 -0.614112
O6    O     O_R   0.557730 0.499980 0.653620 -0.623072
O7    O     O_R   0.385350 0.316760 0.500000 -0.624079
O8    O     O_R   0.614690 0.316790 0.500010 -0.644045
O9    O     O_R   0.442270 0.500020 0.346380 -0.630071
O10   O     O_R   0.671610 0.500060 0.346390 -0.559172
O11   O     O_2   0.971638 0.545332 0.194104 -0.365953
S1    S     S_3+6 0.876982 0.618962 0.145937 0.002151
Zn1   Zn    Zn3+2 0.346870 0.499980 0.499990 0.946887
Zn2   Zn    Zn3+2 0.653130 0.500020 0.500010 0.966759

loop_
_geom_bond_atom_site_label_1
_geom_bond_atom_site_label_2
_ccdc_geom_bond_type
C16   O7    A    
C10   H14   S    
O1    Zn1   S    
C23   C30   A    
C20   O10   A    
C6    C7    A    
C3    C9    A    
C13   C17   A    
C9    C10   S    
O7    Zn1   S    
C2    C4    S    
C11   H15   S    
C31   H6    S    
O8    Zn2   S    
O3    S1    S    
C19   H4    S    
H13   O3    S    
C4    O6    A    
C20   O9    A    
C17   C18   S    
C1    O1    A    
C18   H20   S    
C7    C8    A    
C8    C16   S    
C1    O4    A    
C7    H1    S    
C12   C23   A    
C26   H8    S    
C11   H16   S    
C29   C30   A    
C22   C32   A    
O2    S1    D    
C14   N1    A    
O10   Zn2   S    
C4    O5    A    
O4    Zn2   S    
C28   C29   A    
C21   C28   A    
C20   C22   S    
C18   H19   S    
O11   S1    D    
C13   N1    A    
C6    H11   S    
C2    C24   A    
C5    C6    A    
C21   C32   A    
O9    Zn1   S    
C14   H17   S    
C3    C11   S    
C22   C31   A    
C13   C19   S    
C12   C27   A    
C10   H12   S    
C15   N2    A    
C3    C5    A    
C1    C5    S    
C24   H7    S    
C21   H5    S    
C24   C25   A    
O6    Zn2   S    
C32   S1    S    
C18   C19   S    
C10   C11   S    
C15   H18   S    
C25   H9    S    
C2    C23   A    
N1    Zn2   S    
C29   H3    S    
C14   C15   A    
C30   H10   S    
N2    Zn1   S    
O5    Zn1   S    
C25   C26   A    
C27   C31   A    
C17   N2    A    
C16   O8    A    
C12   C26   A    
C8    C9    A    
C27   C28   A    
C19   H2    S    
