data_str_m2_o16_o19_f0_pcu.sym.111
_audit_creation_date              2012-12-10T17:33:41-0500
_audit_creation_method            fapswitch 2.2
_symmetry_space_group_name_H-M    P1
_symmetry_Int_Tables_number       1
_space_group_crystal_system       triclinic
_cell_length_a                    11.654368
_cell_length_b                    12.443349
_cell_length_c                    13.164724
_cell_angle_alpha                 116.94342
_cell_angle_beta                  76.263913
_cell_angle_gamma                 100.511342
_cell_volume                      1647.05057423

loop_
_atom_site_label
_atom_site_type_symbol
_atom_type_description
_atom_site_fract_x
_atom_site_fract_y
_atom_site_fract_z
_atom_type_partial_charge
C1    C     C_R   0.521165 0.854862 0.286316 0.968477
C2    C     C_R   0.472313 0.229911 0.839215 -0.271590
C3    C     C_R   0.677836 0.790166 0.113347 0.278652
C4    C     C_R   0.736735 0.692713 0.021148 0.206606
C5    C     C_R   0.682595 0.574516 0.990848 0.528775
C6    C     C_R   0.558898 0.555809 0.027831 0.016561
C7    C     C_R   0.497534 0.654358 0.117417 -0.259013
C8    C     C_R   0.496855 0.438833 0.985618 0.001481
C9    C     C_R   0.392249 0.415089 0.055108 -0.253407
C10   C     C_R   0.329638 0.513305 0.141903 0.441734
C11   C     C_R   0.377031 0.632138 0.164046 0.437947
C12   C     C_R   0.715254 0.000867 0.501414 0.824922
C13   C     C_R   0.531554 0.347695 0.873517 0.393725
C14   C     C_R   0.389887 0.200234 0.922153 0.295849
C15   C     C_R   0.560206 0.770171 0.164783 -0.148071
C16   C     C_R   0.616732 0.298252 0.276546 0.315403
C17   C     C_R   0.340503 0.764456 0.649082 0.569881
C18   C     C_R   0.292181 0.663861 0.671085 -0.362004
C19   C     C_R   0.337245 0.552026 0.603576 0.503179
C20   C     C_R   0.442933 0.542347 0.521044 -0.128348
C21   C     C_R   0.485212 0.644050 0.494548 -0.017368
C22   C     C_R   0.504751 0.433705 0.458731 -0.189825
C23   C     C_R   0.485688 0.145273 0.714338 0.833873
C24   C     C_R   0.569470 0.410384 0.346534 -0.211099
C25   C     C_R   0.592826 0.503845 0.310600 0.323631
C26   C     C_R   0.574157 0.622103 0.393627 0.481709
C27   C     C_R   0.505320 0.348243 0.503123 0.517317
C28   C     C_R   0.624864 0.223954 0.328225 0.409327
C29   C     C_R   0.284509 0.000739 0.500655 0.836346
C30   C     C_1   0.836908 0.002735 0.503592 -0.177104
C31   C     C_1   0.939673 0.003429 0.503911 -0.004411
C32   C     C_1   0.059797 0.003040 0.502980 0.009273
C33   C     C_1   0.162626 0.002152 0.501836 -0.137905
C34   C     C_R   0.349798 0.293580 0.031303 0.415761
Cu1   Cu    Cu3+1 0.526510 0.098270 0.475420 0.982407
Cu2   Cu    Cu3+1 0.473490 0.901730 0.524580 1.072665
H1    H     H_    0.212423 0.669924 0.735003 0.175831
N1    N     N_R   0.566700 0.246290 0.438210 -0.288320
N2    N     N_R   0.434010 0.754320 0.561170 -0.194568
O1    O     O_R   0.533340 0.972510 0.318140 -0.537422
O2    O     O_R   0.488570 0.806530 0.359650 -0.529549
O3    O     O_R   0.685190 0.083000 0.479260 -0.595619
O4    O     O_R   0.640410 0.917020 0.520770 -0.537582
O5    O     O_R   0.511430 0.193470 0.640350 -0.566241
O6    O     O_R   0.466660 0.027490 0.681860 -0.480551
O7    O     O_R   0.359590 0.082980 0.479230 -0.629576
O8    O     O_R   0.314810 0.917000 0.520740 -0.507937
O9    O     O_3   0.344325 0.081406 0.891834 -0.674238
H2    H     H_    0.288598 0.073519 0.958158 0.354226
O10   O     O_3   0.656358 0.489172 0.203118 -0.662361
H3    H     H_    0.735137 0.464720 0.196413 0.358685
O11   O     O_3   0.657913 0.264641 0.159501 -0.698550
H4    H     H_    0.674865 0.178566 0.119998 0.372872
O12   O     O_3   0.451934 0.373327 0.615098 -0.645706
H5    H     H_    0.393479 0.303681 0.610897 0.356372
O13   O     O_3   0.287424 0.871508 0.708445 -0.643874
H6    H     H_    0.219190 0.863790 0.767000 0.310903
O14   O     O_3   0.265508 0.453169 0.609639 -0.697281
H7    H     H_    0.277818 0.383998 0.532070 0.313162
O15   O     O_3   0.652528 0.711576 0.376364 -0.536534
C35   C     C_3   0.764012 0.707352 0.399996 -0.268228
H8    H     H_    0.832188 0.760815 0.363083 0.181184
H9    H     H_    0.794781 0.615235 0.360440 0.126937
H10   H     H_    0.761450 0.747267 0.494970 0.177116
O16   O     O_3   0.221011 0.494857 0.205338 -0.525286
C36   C     C_3   0.130365 0.479017 0.143980 -0.165897
H11   H     H_    0.147666 0.408748 0.053005 0.150569
H12   H     H_    0.116951 0.565821 0.145614 0.148985
H13   H     H_    0.046193 0.448462 0.187580 0.185820
O17   O     O_3   0.262496 0.265911 0.109736 -0.561887
C37   C     C_3   0.316608 0.265874 0.194872 -0.218333
H14   H     H_    0.247883 0.237859 0.254674 0.176219
H15   H     H_    0.355493 0.357948 0.247278 0.185202
H16   H     H_    0.385467 0.200080 0.155784 0.155754
O18   O     O_3   0.612038 0.379495 0.793970 -0.637200
H17   H     H_    0.664336 0.312719 0.747028 0.345545
O19   O     O_3   0.738701 0.901292 0.165446 -0.692555
H18   H     H_    0.823766 0.890726 0.153983 0.332718
O20   O     O_3   0.750655 0.476579 0.935723 -0.684670
H19   H     H_    0.836082 0.504385 0.926719 0.367214
O21   O     O_3   0.850012 0.709184 0.964830 -0.747668
H20   H     H_    0.861683 0.791352 0.967688 0.345957
O22   O     O_3   0.305932 0.725047 0.238497 -0.562644
C38   C     C_3   0.277346 0.779831 0.175302 -0.356115
H21   H     H_    0.245081 0.712130 0.094700 0.159557
H22   H     H_    0.354128 0.837827 0.153637 0.168929
H23   H     H_    0.204995 0.839024 0.230131 0.192353
O23   O     O_3   0.694405 0.129459 0.265862 -0.675116
H24   H     H_    0.735447 0.124296 0.320618 0.374043

loop_
_geom_bond_atom_site_label_1
_geom_bond_atom_site_label_2
_ccdc_geom_bond_type
C16   C28   A    
C36   H12   S    
C21   C26   A    
C8    C13   A    
C23   O6    A    
Cu1   Cu2   S    
C38   H23   S    
O21   H20   S    
C27   O12   S    
O19   H18   S    
C7    C11   A    
C29   O8    A    
O22   C38   S    
C18   H1    S    
C38   H22   S    
C12   O4    A    
C30   C31   T    
C36   H13   S    
C27   N1    A    
C29   C33   S    
O13   H6    S    
Cu2   O8    S    
C18   C19   A    
C17   N2    A    
C35   H9    S    
C2    C13   A    
C25   O10   S    
C12   O3    A    
C1    O1    A    
C4    O21   S    
C19   C20   A    
C8    C9    A    
C28   O23   S    
O17   C37   S    
C1    C15   S    
C5    O20   S    
C9    C10   A    
C34   O17   S    
C7    C15   A    
C36   H11   S    
C16   C24   A    
Cu2   O2    S    
O10   H3    S    
C19   O14   S    
C13   O18   S    
Cu1   N1    S    
C24   C25   A    
C37   H15   S    
C6    C8    A    
C11   O22   S    
O14   H7    S    
C23   O5    A    
O15   C35   S    
C35   H10   S    
O18   H17   S    
C31   C32   S    
C21   N2    A    
C28   N1    A    
C20   C21   A    
C17   C18   A    
Cu2   O6    S    
C38   H21   S    
Cu1   O5    S    
C17   O13   S    
C1    O2    A    
O9    H2    S    
C20   C22   A    
C22   C27   A    
C9    C34   A    
C22   C24   A    
C3    C4    A    
C3    O19   S    
C3    C15   A    
O11   H4    S    
C10   O16   S    
O12   H5    S    
C12   C30   S    
Cu2   N2    S    
C16   O11   S    
C4    C5    A    
C14   C34   A    
C37   H16   S    
C14   O9    S    
C6    C7    A    
C29   O7    A    
C32   C33   T    
Cu1   O1    S    
C25   C26   A    
C37   H14   S    
C5    C6    A    
Cu1   O3    S    
C35   H8    S    
C2    C14   A    
C10   C11   A    
O20   H19   S    
O23   H24   S    
O16   C36   S    
C2    C23   S    
Cu2   O4    S    
Cu1   O7    S    
C26   O15   S    
