data_str_m9_o16_o17_f0_sra.sym.50
_audit_creation_date              2012-12-11T15:07:35-0500
_audit_creation_method            fapswitch 2.2
_symmetry_space_group_name_H-M    P1
_symmetry_Int_Tables_number       1
_space_group_crystal_system       triclinic
_cell_length_a                    21.637394
_cell_length_b                    7.20566
_cell_length_c                    18.627024
_cell_angle_alpha                 90.000024
_cell_angle_beta                  96.015505
_cell_angle_gamma                 89.999749
_cell_volume                      2888.17945227

loop_
_atom_site_label
_atom_site_type_symbol
_atom_type_description
_atom_site_fract_x
_atom_site_fract_y
_atom_site_fract_z
_atom_type_partial_charge
O1    O     O_R   0.449650 0.506500 0.414480 -0.535634
O2    O     O_R   0.550350 0.006500 0.585520 -0.535636
O3    O     O_R   0.432010 0.173150 0.560250 -0.533409
O4    O     O_R   0.567990 0.673150 0.439750 -0.533409
C1    C     C_R   0.417360 0.343973 0.582679 0.691962
C2    C     C_R   0.582640 0.843973 0.417321 0.691963
O5    O     O_R   0.442320 0.176650 0.413480 -0.532456
O6    O     O_R   0.557680 0.676650 0.586520 -0.532456
O7    O     O_R   0.560730 0.008380 0.437700 -0.538877
O8    O     O_R   0.439270 0.508380 0.562300 -0.538876
C3    C     C_R   0.428577 0.345115 0.387557 0.678264
C4    C     C_R   0.571423 0.845114 0.612443 0.678263
O9    O     O_3   0.538840 0.339860 0.508120 -0.371913
O10   O     O_3   0.461160 0.839860 0.491880 -0.371912
V1    V     V_3+5 0.492800 0.064220 0.498490 1.412691
V2    V     V_3+5 0.507200 0.564220 0.501510 1.412693
C5    C     C_R   0.871501 0.977135 0.689878 -0.159818
C6    C     C_R   0.128495 0.477061 0.310125 -0.159816
H1    H     H_    0.959575 0.004163 0.753328 0.105609
H2    H     H_    0.040421 0.504085 0.246674 0.105606
H3    H     H_    0.789721 0.972691 0.573649 0.125905
H4    H     H_    0.210273 0.472583 0.426355 0.125906
H5    H     H_    0.891548 0.003943 0.639953 0.113660
H6    H     H_    0.108446 0.503833 0.360051 0.113660
C7    C     C_R   0.886397 0.942057 0.819731 -0.034249
C8    C     C_R   0.113602 0.442051 0.180269 -0.034246
C9    C     C_R   0.585553 0.818929 0.744776 -0.166735
C10   C     C_R   0.414449 0.318978 0.255222 -0.166740
C11   C     C_R   0.621604 0.817681 0.811082 -0.118055
C12   C     C_R   0.378400 0.317750 0.188915 -0.118053
C13   C     C_R   0.685528 0.847616 0.815295 -0.156916
C14   C     C_R   0.314474 0.347667 0.184703 -0.156915
C15   C     C_R   0.715452 0.880523 0.752518 0.076852
C16   C     C_R   0.284548 0.380534 0.247481 0.076852
C17   C     C_R   0.677862 0.883475 0.684363 0.070366
C18   C     C_R   0.322137 0.383461 0.315638 0.070366
C19   C     C_R   0.781291 0.910481 0.755121 0.073160
C20   C     C_R   0.218708 0.410475 0.244879 0.073161
C21   C     C_R   0.807480 0.944654 0.689497 0.138825
C22   C     C_R   0.192517 0.444603 0.310505 0.138824
C23   C     C_R   0.769772 0.946972 0.623731 -0.201209
C24   C     C_R   0.230224 0.446898 0.376272 -0.201209
C25   C     C_R   0.706148 0.916485 0.621065 -0.192773
C26   C     C_R   0.293849 0.416430 0.378937 -0.192769
C27   C     C_R   0.822329 0.908531 0.820250 -0.214405
C28   C     C_R   0.177672 0.408550 0.179749 -0.214404
C29   C     C_R   0.910426 0.976927 0.754375 -0.166156
C30   C     C_R   0.089571 0.476873 0.245626 -0.166158
C31   C     C_R   0.612643 0.851782 0.681079 -0.079451
C32   C     C_R   0.387358 0.351788 0.318920 -0.079447
H7    H     H_    0.806109 0.883519 0.872145 0.093235
H8    H     H_    0.193894 0.383572 0.127853 0.093232
H9    H     H_    0.536028 0.793823 0.743088 0.110199
H10   H     H_    0.463975 0.293891 0.256910 0.110198
H11   H     H_    0.710164 0.844132 0.868594 0.108141
H12   H     H_    0.289840 0.344202 0.131404 0.108141
H13   H     H_    0.599783 0.792443 0.859883 0.119666
H14   H     H_    0.400222 0.292545 0.140114 0.119666
H15   H     H_    0.679171 0.919442 0.568714 0.111259
H16   H     H_    0.320825 0.419367 0.431289 0.111253
C33   C     C_R   0.635897 0.714140 0.311192 0.114741
C34   C     C_R   0.364104 0.214140 0.688808 0.114740
C35   C     C_R   0.630075 0.853690 0.364501 -0.084408
C36   C     C_R   0.369925 0.353691 0.635500 -0.084408
C37   C     C_R   0.669488 0.009619 0.366842 -0.269885
C38   C     C_R   0.330512 0.509619 0.633158 -0.269886
C39   C     C_R   0.714952 0.028528 0.319097 0.088863
C40   C     C_R   0.285048 0.528529 0.680903 0.088862
C41   C     C_R   0.723830 0.885420 0.269687 0.015563
C42   C     C_R   0.276170 0.385420 0.730314 0.015562
C43   C     C_R   0.685526 0.725433 0.266680 0.081652
C44   C     C_R   0.314474 0.225433 0.733320 0.081651
C45   C     C_R   0.752191 0.188503 0.320508 -0.181477
C46   C     C_R   0.247809 0.688503 0.679492 -0.181475
C47   C     C_R   0.797790 0.207587 0.273027 -0.190100
C48   C     C_R   0.202209 0.707587 0.726973 -0.190099
C49   C     C_R   0.807585 0.066141 0.223765 0.092847
C50   C     C_R   0.192414 0.566141 0.776236 0.092846
C51   C     C_R   0.770927 0.903542 0.222593 0.065673
C52   C     C_R   0.229073 0.403541 0.777407 0.065673
C53   C     C_R   0.781375 0.759102 0.174354 0.092422
C54   C     C_R   0.218625 0.259101 0.825646 0.092422
C55   C     C_R   0.744944 0.598530 0.173198 -0.204885
C56   C     C_R   0.255057 0.098529 0.826802 -0.204883
C57   C     C_R   0.697721 0.581762 0.218454 -0.181920
C58   C     C_R   0.302280 0.081762 0.781546 -0.181920
C59   C     C_R   0.853680 0.083746 0.176113 -0.221984
C60   C     C_R   0.146320 0.583745 0.823887 -0.221984
C61   C     C_R   0.864838 0.938528 0.128562 -0.079974
C62   C     C_R   0.135162 0.438527 0.871438 -0.079975
C63   C     C_R   0.828388 0.776595 0.128341 -0.221643
C64   C     C_R   0.171612 0.276594 0.871659 -0.221644
H17   H     H_    0.664690 0.118093 0.406239 0.140259
H18   H     H_    0.335309 0.618094 0.593761 0.140261
H19   H     H_    0.745711 0.299948 0.358069 0.131154
H20   H     H_    0.254288 0.799949 0.641931 0.131154
H21   H     H_    0.825545 0.333016 0.275013 0.134227
H22   H     H_    0.174454 0.833017 0.724988 0.134227
H23   H     H_    0.881809 0.208440 0.177274 0.125124
H24   H     H_    0.118190 0.708440 0.822726 0.125125
H25   H     H_    0.836236 0.664031 0.091735 0.130460
H26   H     H_    0.163764 0.164030 0.908264 0.130461
H27   H     H_    0.752984 0.484986 0.137152 0.132980
H28   H     H_    0.247017 0.984985 0.862848 0.132980
H29   H     H_    0.671838 0.453160 0.215955 0.148222
H30   H     H_    0.328163 0.953160 0.784045 0.148221
O11   O     O_R   0.060820 0.290050 0.937800 -0.539140
O12   O     O_R   0.939180 0.790050 0.062200 -0.539140
O13   O     O_R   0.057690 0.616620 0.086540 -0.534903
O14   O     O_R   0.942310 0.116620 0.913460 -0.534904
C65   C     C_R   0.071620 0.448730 0.112459 0.684437
C66   C     C_R   0.928380 0.948731 0.887540 0.684437
O15   O     O_R   0.068010 0.619890 0.939770 -0.540577
O16   O     O_R   0.931990 0.119890 0.060230 -0.540577
O17   O     O_R   0.949640 0.787940 0.914460 -0.533771
O18   O     O_R   0.050360 0.287940 0.085540 -0.533770
C67   C     C_R   0.084536 0.451058 0.919422 0.697697
C68   C     C_R   0.915463 0.951058 0.080577 0.697698
O19   O     O_3   0.961210 0.453080 0.991940 -0.374325
O20   O     O_3   0.038790 0.953080 0.008060 -0.374325
V3    V     V_3+5 0.007200 0.728820 0.001500 1.409530
V4    V     V_3+5 0.992800 0.228820 0.998500 1.409531
C69   C     C_3   0.587101 0.563319 0.297229 -0.767138
H31   H     H_    0.576226 0.538961 0.238439 0.190042
H32   H     H_    0.603828 0.432442 0.324106 0.209827
H33   H     H_    0.541757 0.603469 0.315153 0.212669
C70   C     C_3   0.412900 0.063318 0.702771 -0.767137
H34   H     H_    0.423776 0.038964 0.761561 0.190043
H35   H     H_    0.396172 0.932440 0.675896 0.209826
H36   H     H_    0.458243 0.103465 0.684845 0.212671

loop_
_geom_bond_atom_site_label_1
_geom_bond_atom_site_label_2
_ccdc_geom_bond_type
C38   C40   A    
C35   C37   A    
O17   V3    S    
C9    C11   A    
C23   C25   A    
O1    C3    A    
O12   V3    S    
O2    C4    A    
C2    O7    A    
C4    C31   S    
O3    V1    S    
C69   H31   S    
C21   C23   A    
O5    C3    A    
C5    H5    S    
C55   H27   S    
C6    H6    S    
C48   C50   A    
O13   C65   A    
C34   C70   S    
H1    C29   S    
C69   H32   S    
C27   H7    S    
C40   C46   A    
C28   H8    S    
C47   H21   S    
C54   C64   A    
C41   C43   A    
C5    C21   A    
C33   C35   A    
C6    C22   A    
C34   C36   A    
C7    C66   S    
C43   C57   A    
C10   C32   A    
C37   C39   A    
C17   C31   A    
C13   C15   A    
C65   O18   A    
C39   C45   A    
C61   C63   A    
C17   C25   A    
C7    C29   A    
C16   C18   A    
C25   H15   S    
C38   H18   S    
C33   C43   A    
C37   H17   S    
O6    V2    S    
C45   C47   A    
C58   H30   S    
C24   C26   A    
C63   H25   S    
C57   H29   S    
C53   C55   A    
C59   H23   S    
C49   C51   A    
C42   C52   A    
C12   C14   A    
C62   C67   S    
O12   C68   A    
C52   C54   A    
C51   C53   A    
C10   H10   S    
C69   H33   S    
C15   C19   A    
C1    C36   S    
C39   C41   A    
C36   C38   A    
C2    C35   S    
O4    V2    S    
C70   H35   S    
C46   H20   S    
C62   C64   A    
O6    C4    A    
C34   C44   A    
O1    V2    S    
O16   C68   A    
C53   C63   A    
O2    V1    S    
C47   C49   A    
C60   H24   S    
C46   C48   A    
H3    C23   S    
O4    C2    A    
C55   C57   A    
C60   C62   A    
C54   C56   A    
C59   C61   A    
C56   H28   S    
O15   C67   A    
C41   C51   A    
C45   H19   S    
C19   C27   A    
C70   H34   S    
C7    C27   A    
C18   C32   A    
O20   V3    S    
O18   V4    S    
O19   V4    S    
C50   C60   A    
H2    C30   S    
C16   C20   A    
C5    C29   A    
C11   H13   S    
C22   C24   A    
O3    C1    A    
C6    C30   A    
C44   C58   A    
C9    H9    S    
C8    C30   A    
C33   C69   S    
C10   C12   A    
O7    V1    S    
C70   H36   S    
C1    O8    A    
C19   C21   A    
C3    C32   S    
O8    V2    S    
O14   V4    S    
C20   C22   A    
O13   V3    S    
H4    C24   S    
C26   H16   S    
C12   H14   S    
O5    V1    S    
C15   C17   A    
C14   H12   S    
C50   C52   A    
O14   C66   A    
C20   C28   A    
C18   C26   A    
C8    C28   A    
O16   V4    S    
O15   V3    S    
C61   C68   S    
C49   C59   A    
C11   C13   A    
O9    V2    S    
C40   C42   A    
O10   V1    S    
C56   C58   A    
C42   C44   A    
O11   V4    S    
C13   H11   S    
C48   H22   S    
C8    C65   S    
O11   C67   A    
C66   O17   A    
C9    C31   A    
C14   C16   A    
C64   H26   S    
