data_str_m9_o16_o20_f0_sra.sym.90
_audit_creation_date              2012-12-11T15:10:52-0500
_audit_creation_method            fapswitch 2.2
_symmetry_space_group_name_H-M    P1
_symmetry_Int_Tables_number       1
_space_group_crystal_system       triclinic
_cell_length_a                    21.20109
_cell_length_b                    7.236936
_cell_length_c                    18.238585
_cell_angle_alpha                 89.999886
_cell_angle_beta                  93.308397
_cell_angle_gamma                 90.000041
_cell_volume                      2793.69924802

loop_
_atom_site_label
_atom_site_type_symbol
_atom_type_description
_atom_site_fract_x
_atom_site_fract_y
_atom_site_fract_z
_atom_type_partial_charge
O1    O     O_R   0.448880 0.506250 0.415280 -0.529792
O2    O     O_R   0.551120 0.006250 0.584720 -0.529792
O3    O     O_R   0.434830 0.174000 0.557310 -0.521050
O4    O     O_R   0.565170 0.674000 0.442690 -0.521051
C1    C     C_R   0.416988 0.344595 0.579657 0.696414
C2    C     C_R   0.583012 0.844596 0.420343 0.696415
O5    O     O_R   0.441680 0.176440 0.414130 -0.530469
O6    O     O_R   0.558320 0.676440 0.585870 -0.530469
O7    O     O_R   0.558020 0.007570 0.440520 -0.519417
O8    O     O_R   0.441980 0.507570 0.559480 -0.519416
C3    C     C_R   0.428181 0.344811 0.388271 0.676123
C4    C     C_R   0.571819 0.844811 0.611729 0.676122
O9    O     O_3   0.538160 0.339670 0.508820 -0.364378
O10   O     O_3   0.461840 0.839670 0.491180 -0.364377
V1    V     V_3+5 0.492920 0.064260 0.498360 1.421018
V2    V     V_3+5 0.507080 0.564260 0.501640 1.421019
C5    C     C_R   0.878449 0.922249 0.687374 0.174073
C6    C     C_R   0.121550 0.422237 0.312627 0.174075
H1    H     H_    0.965390 0.913906 0.754456 0.117322
H2    H     H_    0.034609 0.413905 0.245544 0.117323
H3    H     H_    0.795754 0.939959 0.568316 0.140352
H4    H     H_    0.204244 0.439914 0.431685 0.140351
C7    C     C_R   0.885790 0.938855 0.820765 -0.081952
C8    C     C_R   0.114209 0.438854 0.179235 -0.081954
C9    C     C_R   0.583405 0.798941 0.745248 -0.156726
C10   C     C_R   0.416596 0.298957 0.254751 -0.156726
C11   C     C_R   0.619394 0.777430 0.810793 -0.127507
C12   C     C_R   0.380608 0.277446 0.189206 -0.127507
C13   C     C_R   0.684101 0.812150 0.814029 -0.167450
C14   C     C_R   0.315900 0.312154 0.185970 -0.167450
C15   C     C_R   0.714413 0.878650 0.752277 0.093247
C16   C     C_R   0.285587 0.378644 0.247724 0.093248
C17   C     C_R   0.678017 0.885961 0.683754 0.071580
C18   C     C_R   0.321983 0.385951 0.316247 0.071580
C19   C     C_R   0.781069 0.918071 0.754958 0.026744
C20   C     C_R   0.218931 0.418062 0.245043 0.026742
C21   C     C_R   0.811516 0.922903 0.687236 0.089043
C22   C     C_R   0.188483 0.422885 0.312765 0.089040
C23   C     C_R   0.774505 0.927737 0.620595 -0.182572
C24   C     C_R   0.225494 0.427706 0.379406 -0.182569
C25   C     C_R   0.709036 0.917165 0.619189 -0.197916
C26   C     C_R   0.290962 0.417139 0.380812 -0.197914
C27   C     C_R   0.819097 0.951290 0.821559 0.095791
C28   C     C_R   0.180903 0.451288 0.178441 0.095793
C29   C     C_R   0.914272 0.920704 0.754189 -0.206989
C30   C     C_R   0.085727 0.420701 0.245811 -0.206989
C31   C     C_R   0.611859 0.849990 0.680996 -0.081785
C32   C     C_R   0.388141 0.349991 0.319004 -0.081784
H5    H     H_    0.533341 0.767885 0.743912 0.106771
H6    H     H_    0.466661 0.267911 0.256086 0.106770
H7    H     H_    0.710220 0.777055 0.864587 0.136965
H8    H     H_    0.289781 0.277059 0.135412 0.136964
H9    H     H_    0.597231 0.728655 0.859180 0.122045
H10   H     H_    0.402771 0.228680 0.140818 0.122045
H11   H     H_    0.683153 0.922744 0.566281 0.110378
H12   H     H_    0.316845 0.422711 0.433721 0.110375
C33   C     C_1   0.864550 0.938906 0.132107 -0.207197
C34   C     C_1   0.135450 0.438907 0.867893 -0.207198
C35   C     C_1   0.821727 0.924865 0.175903 -0.001428
C36   C     C_1   0.178273 0.424866 0.824097 -0.001428
C37   C     C_1   0.771205 0.905764 0.228082 -0.002953
C38   C     C_1   0.228795 0.405764 0.771918 -0.002953
C39   C     C_1   0.728663 0.889147 0.272115 -0.003661
C40   C     C_1   0.271337 0.389147 0.727884 -0.003661
C41   C     C_1   0.678126 0.870037 0.324274 -0.002326
C42   C     C_1   0.321874 0.370036 0.675726 -0.002326
C43   C     C_1   0.635283 0.855983 0.368043 -0.206716
C44   C     C_1   0.364717 0.355982 0.631957 -0.206717
O11   O     O_R   0.058070 0.289240 0.940580 -0.519370
O12   O     O_R   0.941930 0.789240 0.059420 -0.519370
O13   O     O_R   0.058330 0.616740 0.085880 -0.534392
O14   O     O_R   0.941670 0.116740 0.914120 -0.534393
C45   C     C_R   0.072355 0.448489 0.111390 0.714084
C46   C     C_R   0.927645 0.948489 0.888610 0.714085
O15   O     O_R   0.065180 0.619040 0.942700 -0.523103
O16   O     O_R   0.934820 0.119040 0.057300 -0.523103
O17   O     O_R   0.948870 0.787780 0.915270 -0.530655
O18   O     O_R   0.051130 0.287780 0.084730 -0.530655
C47   C     C_R   0.083200 0.450307 0.920219 0.708933
C48   C     C_R   0.916800 0.950307 0.079780 0.708934
O19   O     O_3   0.961870 0.453310 0.991210 -0.366750
O20   O     O_3   0.038130 0.953310 0.008790 -0.366750
V3    V     V_3+5 0.007070 0.728770 0.001630 1.409296
V4    V     V_3+5 0.992930 0.228770 0.998370 1.409296
C49   C     C_3   0.912887 0.917991 0.617177 -0.794221
H13   H     H_    0.898667 0.793548 0.584660 0.209721
H14   H     H_    0.901617 0.044311 0.584447 0.208059
H15   H     H_    0.964970 0.912995 0.627945 0.210069
C50   C     C_3   0.087111 0.417974 0.382823 -0.794215
H16   H     H_    0.101320 0.293505 0.415331 0.209722
H17   H     H_    0.098392 0.544271 0.415564 0.208054
H18   H     H_    0.035027 0.413023 0.372055 0.210067
C51   C     C_3   0.791722 0.027319 0.890329 -0.806082
H19   H     H_    0.819459 0.148812 0.910686 0.217783
H20   H     H_    0.743027 0.080623 0.879919 0.218065
H21   H     H_    0.793290 0.920607 0.934142 0.192978
C52   C     C_3   0.208278 0.527322 0.109673 -0.806078
H22   H     H_    0.180542 0.648817 0.089316 0.217782
H23   H     H_    0.256974 0.580625 0.120082 0.218064
H24   H     H_    0.206710 0.420612 0.065858 0.192977

loop_
_geom_bond_atom_site_label_1
_geom_bond_atom_site_label_2
_ccdc_geom_bond_type
C42   C44   T    
C39   C41   S    
C51   H19   S    
C7    C29   A    
C11   C13   A    
C18   C26   A    
O2    C4    A    
O16   V4    S    
C2    O7    A    
C52   H22   S    
C23   C25   A    
C49   H13   S    
O5    C3    A    
C5    C49   S    
C16   C20   A    
C19   C21   A    
C5    C29   A    
C10   H6    S    
C8    C45   S    
C33   C35   T    
O17   V3    S    
C34   C36   T    
C7    C27   A    
C36   C38   S    
C37   C39   T    
C25   H11   S    
C38   C40   T    
C26   H12   S    
C41   C43   T    
C46   O17   A    
O1    C3    A    
C45   O18   A    
C15   C17   A    
C50   H17   S    
C19   C27   A    
C9    C31   A    
C10   C32   A    
O5    V1    S    
C51   H20   S    
C22   C24   A    
C33   C48   S    
C3    C32   S    
C4    C31   S    
C6    C30   A    
C52   H23   S    
C1    C44   S    
O13   V3    S    
C49   H14   S    
C21   C23   A    
C35   C37   S    
O12   C48   A    
O14   C46   A    
O13   C45   A    
C12   H10   S    
C40   C42   S    
O4    V2    S    
O12   V3    S    
C28   C52   S    
H3    C23   S    
O6    C4    A    
H4    C24   S    
H1    C29   S    
O1    V2    S    
C5    C21   A    
C50   H18   S    
O2    V1    S    
O14   V4    S    
C34   C47   S    
O4    C2    A    
C2    C43   S    
C51   H21   S    
C17   C31   A    
C15   C19   A    
C20   C28   A    
C18   C32   A    
C7    C46   S    
C20   C22   A    
O19   V4    S    
O3    V1    S    
C13   H7    S    
C49   H15   S    
C14   H8    S    
C52   H24   S    
C6    C50   S    
O16   C48   A    
O3    C1    A    
C11   H9    S    
C9    C11   A    
C10   C12   A    
C8    C30   A    
C12   C14   A    
C6    C22   A    
C17   C25   A    
C1    O8    A    
C13   C15   A    
O11   V4    S    
O8    V2    S    
C14   C16   A    
O15   V3    S    
C8    C28   A    
C24   C26   A    
C27   C51   S    
O7    V1    S    
C9    H5    S    
O11   C47   A    
O18   V4    S    
O6    V2    S    
O20   V3    S    
O9    V2    S    
O10   V1    S    
C50   H16   S    
O15   C47   A    
H2    C30   S    
C16   C18   A    
