data_str_m9_o11_o18_f0_sra.sym.52
_audit_creation_date              2012-12-11T14:21:17-0500
_audit_creation_method            fapswitch 2.2
_symmetry_space_group_name_H-M    P1
_symmetry_Int_Tables_number       1
_space_group_crystal_system       triclinic
_cell_length_a                    22.043771
_cell_length_b                    7.215133
_cell_length_c                    14.790573
_cell_angle_alpha                 89.999599
_cell_angle_beta                  107.05182
_cell_angle_gamma                 90.002789
_cell_volume                      2249.00936752

loop_
_atom_site_label
_atom_site_type_symbol
_atom_type_description
_atom_site_fract_x
_atom_site_fract_y
_atom_site_fract_z
_atom_type_partial_charge
O1    O     O_R   0.584770 0.505770 0.002090 -0.518405
O2    O     O_R   0.415230 0.005770 0.997910 -0.518403
O3    O     O_R   0.467060 0.173340 0.861950 -0.534528
O4    O     O_R   0.532940 0.673340 0.138050 -0.534565
C1    C     C_R   0.456136 0.344019 0.825342 0.706657
C2    C     C_R   0.543864 0.844021 0.174658 0.706595
O5    O     O_R   0.587510 0.175890 0.993210 -0.540791
O6    O     O_R   0.412490 0.675890 0.006790 -0.540818
O7    O     O_R   0.536540 0.008150 0.130100 -0.537648
O8    O     O_R   0.463460 0.508150 0.869900 -0.537654
C3    C     C_R   0.613715 0.344338 0.002021 0.667020
C4    C     C_R   0.386286 0.844327 0.997980 0.667065
O9    O     O_3   0.483140 0.340040 0.044760 -0.376356
O10   O     O_3   0.516860 0.840040 0.955240 -0.376316
V1    V     V_3+5 0.503130 0.064190 0.991700 1.495127
V2    V     V_3+5 0.496870 0.564190 0.008300 1.495050
C5    C     C_2   0.215502 0.733018 0.008389 -0.080171
C6    C     C_2   0.784519 0.232969 0.991718 -0.080204
C7    C     C_2   0.181436 0.889679 0.004638 -0.246617
C8    C     C_2   0.818564 0.389645 0.995350 -0.246704
H1    H     H_    0.193301 0.599728 0.011351 0.140982
H2    H     H_    0.806739 0.099670 0.988869 0.141063
H3    H     H_    0.204858 0.023086 0.008790 0.132290
H4    H     H_    0.795127 0.523040 0.991093 0.132277
C9    C     C_2   0.285127 0.732460 0.019208 -0.188212
C10   C     C_2   0.714893 0.232365 0.980902 -0.188085
C11   C     C_2   0.316051 0.854589 0.978560 -0.149780
C12   C     C_2   0.683949 0.354655 0.021427 -0.149821
H5    H     H_    0.312392 0.624236 0.064260 0.139476
H6    H     H_    0.687647 0.123963 0.935962 0.139614
C13   C     C_R   0.927857 0.892840 0.720942 -0.140588
C14   C     C_R   0.072137 0.392842 0.279060 -0.140558
C15   C     C_R   0.571752 0.849806 0.277544 -0.067327
C16   C     C_R   0.428245 0.349793 0.722456 -0.067341
C17   C     C_R   0.934960 0.958850 0.562440 0.370457
C18   C     C_R   0.065037 0.458953 0.437555 0.370487
C19   C     C_R   0.964454 0.945649 0.661338 -0.120320
C20   C     C_R   0.035545 0.445738 0.338654 -0.120145
C21   C     C_R   0.862661 0.864555 0.682951 -0.228397
C22   C     C_R   0.137327 0.364478 0.317057 -0.228392
C23   C     C_R   0.830822 0.901560 0.586765 0.027760
C24   C     C_R   0.169169 0.401488 0.413242 0.027747
C25   C     C_R   0.867719 0.950328 0.525641 0.019134
C26   C     C_R   0.132276 0.450315 0.474361 0.019174
C27   C     C_R   0.763135 0.890665 0.549912 0.090909
C28   C     C_R   0.236855 0.390563 0.450095 0.090910
C29   C     C_R   0.733677 0.903118 0.450889 0.058736
C30   C     C_R   0.266315 0.403021 0.549117 0.058728
C31   C     C_R   0.771177 0.955279 0.392970 -0.259558
C32   C     C_R   0.228818 0.455177 0.607038 -0.259511
C33   C     C_R   0.836050 0.986297 0.428777 -0.031213
C34   C     C_R   0.163950 0.486241 0.571230 -0.031109
C35   C     C_R   0.723577 0.879180 0.609254 -0.187016
C36   C     C_R   0.276411 0.379068 0.390750 -0.187020
C37   C     C_R   0.658025 0.866162 0.572609 -0.129755
C38   C     C_R   0.341963 0.366067 0.427392 -0.129762
C39   C     C_R   0.628460 0.851903 0.474861 0.073750
C40   C     C_R   0.371531 0.351835 0.525140 0.073761
C41   C     C_R   0.666738 0.874905 0.412856 0.079767
C42   C     C_R   0.333255 0.374827 0.587147 0.079748
C43   C     C_R   0.561636 0.821438 0.436740 0.003954
C44   C     C_R   0.438357 0.321410 0.563259 0.003961
C45   C     C_R   0.534447 0.823848 0.337916 -0.230562
C46   C     C_R   0.465549 0.323847 0.662082 -0.230570
C47   C     C_R   0.636972 0.868488 0.314342 -0.190158
C48   C     C_R   0.363025 0.368434 0.685661 -0.190108
H7    H     H_    0.663223 0.871423 0.263315 0.134809
H8    H     H_    0.336776 0.371360 0.736692 0.134919
H9    H     H_    0.483921 0.801694 0.307217 0.148752
H10   H     H_    0.516076 0.301720 0.692778 0.148760
H11   H     H_    0.631399 0.872205 0.623017 0.169918
H12   H     H_    0.368587 0.372108 0.376981 0.169911
H13   H     H_    0.837513 0.818497 0.731383 0.112029
H14   H     H_    0.162470 0.318359 0.268632 0.112039
H15   H     H_    0.750110 0.990202 0.319636 0.157735
H16   H     H_    0.249884 0.490074 0.680376 0.157703
H17   H     H_    0.741723 0.890421 0.685118 0.118916
H18   H     H_    0.258264 0.390298 0.314886 0.118900
O11   O     O_R   0.036450 0.233070 0.130130 -0.534488
O12   O     O_R   0.963550 0.733070 0.869870 -0.534493
O13   O     O_R   0.912470 0.560570 0.006790 -0.541171
O14   O     O_R   0.087530 0.060570 0.993210 -0.541180
C49   C     C_R   0.886761 0.392302 0.000610 0.773691
C50   C     C_R   0.113240 0.892311 0.999390 0.773696
O15   O     O_R   0.032920 0.562940 0.138050 -0.541648
O16   O     O_R   0.967080 0.062940 0.861950 -0.541634
O17   O     O_R   0.084790 0.730500 0.002090 -0.542345
O18   O     O_R   0.915210 0.230500 0.997910 -0.542366
C51   C     C_R   0.045501 0.395133 0.175131 0.753463
C52   C     C_R   0.954497 0.895132 0.824869 0.753528
O19   O     O_3   0.016820 0.396170 0.955260 -0.381604
O20   O     O_3   0.983180 0.896170 0.044740 -0.381609
V3    V     V_3+5 0.996880 0.672090 0.008300 1.471935
V4    V     V_3+5 0.003120 0.172090 0.991700 1.471930
C53   C     C_2   0.032629 0.996024 0.701680 0.807820
O21   O     O_2   0.066242 0.913461 0.770379 -0.565166
O22   O     O_R   0.058355 0.138927 0.660618 -0.631096
H19   H     H_    0.105363 0.156763 0.692375 0.319143
C54   C     C_2   0.967379 0.496174 0.298293 0.807667
O23   O     O_2   0.933751 0.413521 0.229636 -0.565120
O24   O     O_R   0.941681 0.639237 0.339283 -0.631238
H20   H     H_    0.894675 0.657087 0.307526 0.319104
C55   C     C_2   0.518351 0.781459 0.495680 0.774757
O25   O     O_2   0.461656 0.815506 0.464439 -0.549320
O26   O     O_R   0.540806 0.697141 0.584269 -0.660576
H21   H     H_    0.506682 0.683118 0.617167 0.298202
C56   C     C_2   0.481641 0.281452 0.504316 0.774732
O27   O     O_2   0.538334 0.315541 0.535551 -0.549319
O28   O     O_R   0.459187 0.197108 0.415733 -0.660580
H22   H     H_    0.493310 0.183104 0.382832 0.298197
C57   C     C_2   0.281017 0.985779 0.903525 0.769360
O29   O     O_2   0.301422 0.142260 0.899587 -0.561853
O30   O     O_R   0.225834 0.927577 0.835192 -0.635508
H23   H     H_    0.207187 0.027574 0.786936 0.309232
C58   C     C_2   0.718968 0.486158 0.096315 0.769362
O31   O     O_2   0.698578 0.642732 0.100019 -0.561828
O32   O     O_R   0.774127 0.428170 0.164761 -0.635512
H24   H     H_    0.792774 0.528394 0.212885 0.309191
C59   C     C_2   0.866273 0.074101 0.362324 0.902586
O33   O     O_2   0.897398 0.215368 0.385356 -0.546796
O34   O     O_R   0.854933 0.003326 0.270834 -0.662144
H25   H     H_    0.876911 0.077261 0.231307 0.331653
C60   C     C_2   0.133739 0.574067 0.637687 0.902540
O35   O     O_2   0.102690 0.715471 0.614700 -0.546904
O36   O     O_R   0.145011 0.503150 0.729137 -0.662047
H26   H     H_    0.123056 0.577126 0.768676 0.331663
O37   O     O_3   0.970837 0.973228 0.500187 -0.607613
H27   H     H_    0.013260 0.919184 0.528973 0.358712
O38   O     O_3   0.029162 0.473480 0.499805 -0.607757
H28   H     H_    0.986695 0.419727 0.470992 0.358646

loop_
_geom_bond_atom_site_label_1
_geom_bond_atom_site_label_2
_ccdc_geom_bond_type
C40   C44   A    
C48   H8    S    
O24   H20   S    
O14   V4    S    
C58   O32   S    
C35   H17   S    
C53   O21   D    
C6    C10   S    
C50   O17   A    
O2    C4    A    
C16   C48   A    
C2    O7    A    
O22   H19   S    
C15   C47   A    
C60   O35   D    
C29   C31   A    
O5    C3    A    
C17   C19   A    
O38   H28   S    
C34   C60   S    
C39   C41   A    
C40   C42   A    
C58   O31   D    
C19   C53   S    
C24   C28   A    
C27   C29   A    
C43   C45   A    
C8    H4    S    
C44   C46   A    
O16   V4    S    
O15   V3    S    
C14   C51   S    
C22   H14   S    
C38   H12   S    
O1    C3    A    
C33   C59   S    
C56   O27   D    
C31   H15   S    
C14   C20   A    
C22   C24   A    
C17   C25   A    
O6    C4    A    
C26   C34   A    
C30   C32   A    
C49   O18   A    
C42   C48   A    
O6    V2    S    
C23   C25   A    
C24   C26   A    
O13   C49   A    
C30   C42   A    
C28   C30   A    
C35   C37   A    
C9    H5    S    
C36   C38   A    
C4    C11   S    
C45   H9    S    
O11   V4    S    
C55   O26   S    
O16   C52   A    
O15   C51   A    
C44   C56   S    
C47   H7    S    
C29   C41   A    
C5    H1    S    
C31   C33   A    
O4    V2    S    
C7    H3    S    
C12   C58   S    
C32   H16   S    
O13   V3    S    
C32   C34   A    
C54   O23   D    
C15   C45   A    
C13   C52   S    
C1    C16   S    
C28   C36   A    
C16   C46   A    
C57   O30   S    
O1    V2    S    
C17   O37   S    
O2    V1    S    
O34   H25   S    
C59   O34   S    
O4    C2    A    
C54   O24   S    
C10   H6    S    
C46   H10   S    
C37   C39   A    
O36   H26   S    
C18   C26   A    
O37   H27   S    
C14   C22   A    
O3    V1    S    
O30   H23   S    
C57   O29   D    
C43   C55   S    
C6    H2    S    
C10   C12   D    
C20   C54   S    
O3    C1    A    
C8    C49   S    
C59   O33   D    
C53   O22   S    
C39   C43   A    
C9    C11   D    
O26   H21   S    
O14   C50   A    
C2    C15   S    
C5    C9    S    
C18   C20   A    
O7    V1    S    
C1    O8    A    
O8    V2    S    
O32   H24   S    
C41   C47   A    
O19   V4    S    
C25   C33   A    
C56   O28   S    
C3    C12   S    
O17   V3    S    
O5    V1    S    
O20   V3    S    
C5    C7    D    
C38   C40   A    
C6    C8    D    
C21   H13   S    
O12   C52   A    
O11   C51   A    
C60   O36   S    
C27   C35   A    
C13   C19   A    
C21   C23   A    
O9    V2    S    
O28   H22   S    
C55   O25   D    
C13   C21   A    
O18   V4    S    
C23   C27   A    
O10   V1    S    
O12   V3    S    
C18   O38   S    
C11   C57   S    
C37   H11   S    
C7    C50   S    
C36   H18   S    
