data_str_m3_o5_o28_f0_pcu.sym.74
_audit_creation_date              2012-12-10T20:50:29-0500
_audit_creation_method            fapswitch 2.2
_symmetry_space_group_name_H-M    P1
_symmetry_Int_Tables_number       1
_space_group_crystal_system       triclinic
_cell_length_a                    23.245345
_cell_length_b                    9.245521
_cell_length_c                    8.117972
_cell_angle_alpha                 90.137235
_cell_angle_beta                  92.410033
_cell_angle_gamma                 90.181094
_cell_volume                      1743.11910841

loop_
_atom_site_label
_atom_site_type_symbol
_atom_type_description
_atom_site_fract_x
_atom_site_fract_y
_atom_site_fract_z
_atom_type_partial_charge
C1    C     C_R   0.500054 0.217495 0.499892 0.907806
C2    C     C_R   0.791357 0.508825 0.609503 0.219632
C3    C     C_R   0.388921 0.496819 0.496785 0.857053
C4    C     C_R   0.611073 0.504117 0.504064 0.859502
C5    C     C_R   0.290880 0.568141 0.387724 0.034815
C6    C     C_R   0.709908 0.422956 0.436877 0.034021
C7    C     C_R   0.301363 0.374669 0.593931 0.034464
C8    C     C_R   0.697442 0.615317 0.641686 0.033872
C9    C     C_R   0.326448 0.479262 0.490951 -0.104365
C10   C     C_R   0.673637 0.518344 0.520568 -0.108790
C11   C     C_R   0.883880 0.629706 0.653291 0.537726
C12   C     C_R   0.499924 0.782504 0.500124 0.904887
C13   C     C_R   0.114808 0.344243 0.544686 0.528159
C14   C     C_R   0.878606 0.373164 0.659936 0.541114
C15   C     C_R   0.120685 0.600826 0.556975 0.543724
C16   C     C_R   0.938034 0.362712 0.638718 -0.204400
C17   C     C_R   0.061530 0.609432 0.581532 -0.203539
C18   C     C_R   0.944154 0.623618 0.650357 -0.206746
C19   C     C_R   0.057134 0.348757 0.590063 -0.205338
C20   C     C_R   0.970725 0.489493 0.631935 -0.143857
C21   C     C_R   0.029980 0.482498 0.602296 -0.142901
C22   C     C_R   0.965272 0.229496 0.616626 0.401924
C23   C     C_1   0.500008 0.064544 0.499896 -0.203739
C24   C     C_R   0.033233 0.742132 0.588262 0.404675
C25   C     C_R   0.978307 0.748735 0.651090 0.402512
C26   C     C_R   0.025607 0.223256 0.622869 0.401665
C27   C     C_3   0.914267 0.112947 0.411865 0.167671
C28   C     C_3   0.869731 0.994591 0.377582 -0.695042
C29   C     C_3   0.046585 0.857714 0.348457 0.163901
C30   C     C_3   0.076756 0.983990 0.270771 -0.715176
C31   C     C_3   0.958684 0.867805 0.885967 0.177569
C32   C     C_3   0.928187 0.998566 0.953273 -0.716696
C33   C     C_3   0.082925 0.109577 0.817471 0.168159
C34   C     C_1   0.499969 0.935452 0.500222 -0.205990
C35   C     C_3   0.125585 0.985808 0.839911 -0.684070
C36   C     C_3   0.314207 0.683755 0.276273 -0.393971
C37   C     C_3   0.320292 0.624100 0.101822 -0.338604
C38   C     C_3   0.343305 0.738451 0.986392 -0.852860
C39   C     C_3   0.687857 0.317215 0.305796 -0.396832
C40   C     C_3   0.686115 0.388879 0.135744 -0.338081
C41   C     C_3   0.662295 0.286260 0.001907 -0.841504
C42   C     C_3   0.335904 0.257727 0.683815 -0.387788
C43   C     C_3   0.345496 0.293699 0.867204 -0.341471
C44   C     C_3   0.381892 0.178679 0.956250 -0.844913
C45   C     C_R   0.231242 0.553524 0.392968 -0.139341
C46   C     C_3   0.663549 0.739456 0.712614 -0.385163
C47   C     C_3   0.649483 0.712829 0.892906 -0.336115
C48   C     C_3   0.614651 0.837166 0.961561 -0.847150
C49   C     C_R   0.768706 0.423701 0.478812 -0.155602
C50   C     C_R   0.241879 0.373623 0.607857 -0.153278
C51   C     C_R   0.755356 0.603010 0.691167 -0.142191
C52   C     C_R   0.206669 0.463163 0.508958 0.224307
H1    H     H_    0.203577 0.619233 0.312812 0.153978
H2    H     H_    0.999622 0.864652 0.316677 0.097500
H3    H     H_    0.063829 0.756739 0.293943 0.099768
H4    H     H_    0.123432 0.982486 0.305972 0.293832
H5    H     H_    0.071481 0.973260 0.136067 0.151507
H6    H     H_    0.057572 0.087771 0.309239 0.256223
H7    H     H_    0.003542 0.865256 0.938698 0.085740
H8    H     H_    0.935483 0.770078 0.928812 0.105834
H9    H     H_    0.882977 0.002183 0.903500 0.297309
H10   H     H_    0.928358 0.989459 0.088475 0.152433
H11   H     H_    0.950577 0.099958 0.921333 0.239329
H12   H     H_    0.797181 0.355089 0.411101 0.141978
H13   H     H_    0.051726 0.107666 0.916726 0.092961
H14   H     H_    0.108187 0.211629 0.831301 0.105203
H15   H     H_    0.155011 0.983805 0.735693 0.307727
H16   H     H_    0.151848 0.001011 0.956113 0.165704
H17   H     H_    0.102518 0.880862 0.845398 0.239008
H18   H     H_    0.312955 0.830806 0.975932 0.254964
H19   H     H_    0.386176 0.777841 0.033034 0.267617
H20   H     H_    0.347830 0.690815 0.861870 0.258276
H21   H     H_    0.350381 0.531448 0.106985 0.240647
H22   H     H_    0.277786 0.585229 0.051219 0.215258
H23   H     H_    0.222858 0.302111 0.696225 0.157645
H24   H     H_    0.284414 0.777782 0.271506 0.204026
H25   H     H_    0.356111 0.726684 0.326029 0.204614
H26   H     H_    0.689590 0.188098 0.996068 0.257755
H27   H     H_    0.617427 0.254065 0.027305 0.264911
H28   H     H_    0.662208 0.341277 0.880402 0.258741
H29   H     H_    0.658576 0.486427 0.138119 0.235742
H30   H     H_    0.730270 0.423106 0.104739 0.217789
H31   H     H_    0.716610 0.221289 0.303288 0.197495
H32   H     H_    0.644739 0.274700 0.334981 0.208456
H33   H     H_    0.360091 0.071861 0.946732 0.254731
H34   H     H_    0.772790 0.670467 0.790556 0.169833
H35   H     H_    0.424880 0.171127 0.902034 0.275636
H36   H     H_    0.387968 0.208064 0.088607 0.251972
H37   H     H_    0.368163 0.398820 0.880462 0.249146
H38   H     H_    0.303389 0.302200 0.926505 0.207244
H39   H     H_    0.312401 0.153033 0.670622 0.200148
H40   H     H_    0.377882 0.240285 0.626698 0.203696
H41   H     H_    0.605138 0.814493 0.091924 0.251894
H42   H     H_    0.639399 0.939845 0.956720 0.254611
H43   H     H_    0.573268 0.849341 0.889573 0.276711
H44   H     H_    0.624063 0.611730 0.902343 0.250576
H45   H     H_    0.951377 0.097212 0.332198 0.097264
H46   H     H_    0.689959 0.701258 0.969480 0.204533
H47   H     H_    0.689447 0.840398 0.704530 0.203922
H48   H     H_    0.623238 0.759604 0.638168 0.198941
H49   H     H_    0.893453 0.217791 0.378330 0.099506
H50   H     H_    0.835909 0.999610 0.470022 0.301729
H51   H     H_    0.848649 0.009654 0.253622 0.165894
H52   H     H_    0.890799 0.887051 0.382322 0.251574
N1    N     N_R   0.852150 0.504691 0.649823 -0.340610
N2    N     N_R   0.145964 0.469337 0.534313 -0.342626
N3    N     N_1   0.500000 0.500000 0.073640 -0.045250
N4    N     N_1   0.500000 0.500000 0.926360 -0.048447
O1    O     O_R   0.500000 0.285350 0.636850 -0.618269
O2    O     O_2   0.139209 0.216564 0.508402 -0.552777
O3    O     O_2   0.847124 0.253434 0.687849 -0.539185
O4    O     O_2   0.153040 0.722380 0.561813 -0.547331
O5    O     O_3   0.933206 0.107464 0.579547 -0.481333
O6    O     O_3   0.057111 0.863068 0.520812 -0.479902
O7    O     O_3   0.958693 0.877055 0.712288 -0.474886
O8    O     O_3   0.053012 0.095635 0.662488 -0.482362
O9    O     O_R   0.500000 0.714650 0.363150 -0.615142
O10   O     O_R   0.500000 0.714650 0.636850 -0.617343
O11   O     O_R   0.500000 0.285350 0.363150 -0.615183
O12   O     O_R   0.416160 0.500000 0.636910 -0.619886
O13   O     O_R   0.583840 0.500000 0.363090 -0.619738
O14   O     O_R   0.583840 0.500000 0.636910 -0.620053
O15   O     O_R   0.416160 0.500000 0.363090 -0.621833
O16   O     O_2   0.857317 0.759032 0.649457 -0.553357
Zn1   Zn    Zn3+2 0.500000 0.500000 0.682780 0.959717
Zn2   Zn    Zn3+2 0.500000 0.500000 0.317220 0.962617

loop_
_geom_bond_atom_site_label_1
_geom_bond_atom_site_label_2
_ccdc_geom_bond_type
C37   H22   S    
C38   H18   S    
C11   C18   A    
C24   O6    S    
C48   H43   S    
C11   O16   S    
C29   O6    S    
C41   H28   S    
C33   H13   S    
C29   C30   S    
C47   H46   S    
C48   H42   S    
C15   N2    A    
C36   C37   S    
C19   C21   A    
C39   H32   S    
C36   H25   S    
C25   O7    S    
C29   H2    S    
C5    C36   S    
C15   C17   A    
C42   H39   S    
C1    O11   A    
C7    C42   S    
C31   H7    S    
C19   C26   A    
C37   H21   S    
C36   H24   S    
C1    O1    A    
C46   C47   S    
C22   O5    S    
C31   C32   S    
C11   N1    A    
C50   C52   A    
C47   H44   S    
O10   Zn1   S    
N4    Zn1   S    
C44   H35   S    
O9    Zn2   S    
C18   C20   A    
C52   N2    S    
C49   H12   S    
C18   C25   A    
C40   H29   S    
C51   H34   S    
C31   O7    S    
C3    O15   A    
C33   H14   S    
C26   O8    S    
C14   N1    A    
C14   O3    S    
C38   H20   S    
C17   C24   A    
C48   H41   S    
C13   C19   A    
C43   H38   S    
C40   H30   S    
C24   C25   A    
C7    C50   A    
C2    C51   A    
C41   H26   S    
O12   Zn1   S    
O15   Zn2   S    
C29   H3    S    
C45   C52   A    
C30   H4    S    
C27   H49   S    
C17   C21   A    
C30   H5    S    
C31   H8    S    
C43   C44   S    
C6    C10   A    
C5    C9    A    
C37   C38   S    
C3    C9    S    
C2    C49   A    
C28   H52   S    
C47   C48   S    
C35   H15   S    
C16   C20   A    
C23   C34   T    
C4    O14   A    
C43   H37   S    
C8    C51   A    
C12   O10   A    
C27   O5    S    
O1    Zn1   S    
C40   C41   S    
C1    C23   S    
C14   C16   A    
C42   C43   S    
N3    N4    T    
C4    C10   S    
C44   H33   S    
C39   C40   S    
C41   H27   S    
C7    C9    A    
C46   H48   S    
C38   H19   S    
C27   H45   S    
C33   O8    S    
C16   C22   A    
C15   O4    S    
C13   O2    S    
N3    Zn2   S    
C13   N2    A    
C32   H9    S    
C32   H11   S    
C2    N1    S    
C46   H47   S    
C39   H31   S    
O13   Zn2   S    
C50   H23   S    
C28   H51   S    
C5    C45   A    
C35   H16   S    
O14   Zn1   S    
C30   H6    S    
C33   C35   S    
C4    O13   A    
C42   H40   S    
C6    C49   A    
C8    C46   S    
C3    O12   A    
C45   H1    S    
C12   O9    A    
O11   Zn2   S    
C28   H50   S    
C20   C21   A    
C35   H17   S    
C8    C10   A    
C22   C26   A    
C27   C28   S    
C6    C39   S    
C32   H10   S    
C44   H36   S    
C12   C34   S    
