data_str_m2_o41_o41_f0_fof.sym.37
_audit_creation_date              2012-10-26T17:13:04-0400
_audit_creation_method            fapswitch 2.2
_symmetry_space_group_name_H-M    P1
_symmetry_Int_Tables_number       1
_space_group_crystal_system       triclinic
_cell_length_a                    16.792589
_cell_length_b                    16.831352
_cell_length_c                    16.92111
_cell_angle_alpha                 68.135206
_cell_angle_beta                  68.303417
_cell_angle_gamma                 68.096097
_cell_volume                      3967.52342291

loop_
_atom_site_label
_atom_site_type_symbol
_atom_type_description
_atom_site_fract_x
_atom_site_fract_y
_atom_site_fract_z
_atom_type_partial_charge
C1    C     C_R   0.323804 0.961692 0.443601 -0.019055
C2    C     C_R   0.322019 0.451154 0.956851 -0.015349
C3    C     C_R   0.526512 0.407050 0.023961 0.024151
C4    C     C_R   0.971498 0.476094 0.592837 0.026230
C5    C     C_R   0.028536 0.523890 0.407159 0.025060
C6    C     C_2   0.238208 0.034164 0.240829 0.300819
C7    C     C_2   0.761792 0.965762 0.759173 0.308248
C8    C     C_2   0.910715 0.276638 0.274592 0.270471
C9    C     C_2   0.089266 0.723375 0.725421 0.272579
C10   C     C_2   0.275775 0.275289 0.909917 0.293912
C11   C     C_2   0.723250 0.724789 0.090629 0.284299
C12   C     C_R   0.043375 0.677177 0.549840 -0.016824
C13   C     C_R   0.956645 0.322816 0.450158 -0.017960
C14   C     C_R   0.452918 0.992149 0.450260 -0.000396
C15   C     C_R   0.547062 0.007923 0.549709 0.000297
C16   C     C_R   0.993371 0.450037 0.452248 0.000132
C17   C     C_R   0.006662 0.549948 0.547749 0.001361
C18   C     C_R   0.450070 0.452659 0.992673 -0.001321
C19   C     C_R   0.549995 0.547640 0.006847 -0.001308
C20   C     C_R   0.029472 0.828316 0.564019 0.528982
C21   C     C_R   0.676191 0.038343 0.556380 -0.017229
C22   C     C_R   0.970530 0.171684 0.435981 0.529917
C23   C     C_R   0.828359 0.563840 0.029753 0.533403
C24   C     C_R   0.171672 0.436250 0.970123 0.548045
C25   C     C_R   0.570062 0.010569 0.833068 0.548317
C26   C     C_R   0.429935 0.989442 0.166927 0.539156
C27   C     C_R   0.431502 0.169831 0.981572 0.535861
C28   C     C_R   0.568457 0.830233 0.018368 0.535473
C29   C     C_R   0.982513 0.431303 0.169581 0.533339
C30   C     C_R   0.017493 0.568694 0.830418 0.549872
C31   C     C_R   0.170651 0.977394 0.433194 0.529655
C32   C     C_R   0.006943 0.429802 0.310846 -0.020601
C33   C     C_R   0.829349 0.022607 0.566804 0.528987
C34   C     C_R   0.404555 0.986455 0.400368 0.021757
C35   C     C_R   0.595430 0.013603 0.599607 0.023636
C36   C     C_R   0.985225 0.401075 0.404382 0.021376
C37   C     C_R   0.014802 0.598913 0.595615 0.023649
C38   C     C_R   0.401164 0.404984 0.984086 0.020828
C39   C     C_R   0.598916 0.595325 0.015405 0.021096
C40   C     C_R   0.266564 0.974853 0.392369 -0.032195
C41   C     C_R   0.733435 0.025155 0.607623 -0.032027
C42   C     C_R   0.981526 0.390603 0.264918 -0.033562
C43   C     C_R   0.993080 0.570188 0.689151 -0.015895
C44   C     C_R   0.018486 0.609393 0.735081 -0.026821
C45   C     C_R   0.390826 0.265353 0.979847 -0.043401
C46   C     C_R   0.609100 0.734850 0.019862 -0.033454
C47   C     C_R   0.611298 0.002554 0.741173 -0.048645
C48   C     C_R   0.388692 0.997472 0.258814 -0.051687
C49   C     C_R   0.729738 0.598786 0.043991 -0.054050
C50   C     C_R   0.270471 0.401653 0.955287 -0.011451
C51   C     C_R   0.043521 0.729510 0.599255 -0.053722
C52   C     C_R   0.956488 0.270488 0.400744 -0.053316
C53   C     C_R   0.487250 0.960520 0.733706 -0.106861
C54   C     C_R   0.430770 0.311149 0.004334 -0.016586
C55   C     C_R   0.512709 0.039574 0.266259 -0.110446
C56   C     C_R   0.073648 0.698878 0.456517 -0.107986
C57   C     C_R   0.926372 0.301116 0.543481 -0.108508
C58   C     C_R   0.701889 0.455233 0.069481 -0.116572
C59   C     C_R   0.298086 0.545113 0.930171 -0.113450
C60   C     C_R   0.300985 0.929816 0.536745 -0.111287
C61   C     C_R   0.699013 0.070223 0.463234 -0.110742
C62   C     C_R   0.501328 0.267265 0.045433 -0.110264
C63   C     C_R   0.498555 0.733023 0.954335 -0.110647
C64   C     C_R   0.051281 0.497901 0.267457 -0.111728
C65   C     C_R   0.569200 0.689116 0.995303 -0.019312
C66   C     C_R   0.948742 0.502090 0.732538 -0.106294
C67   C     C_R   0.299244 0.996770 0.298901 -0.033865
C68   C     C_R   0.700754 0.003221 0.701093 -0.040423
C69   C     C_R   0.953474 0.311752 0.312250 -0.027022
C70   C     C_R   0.046530 0.688248 0.687752 -0.025387
C71   C     C_R   0.312231 0.313237 0.951106 -0.031644
C72   C     C_R   0.688202 0.687373 0.047630 -0.031664
C73   C     C_R   0.652987 0.062170 0.413886 0.016060
C74   C     C_R   0.346996 0.937899 0.586086 0.016266
C75   C     C_R   0.940444 0.453591 0.685550 0.015877
C76   C     C_R   0.563558 0.993169 0.692556 -0.013280
C77   C     C_R   0.059585 0.546396 0.314446 0.013507
C78   C     C_R   0.447912 0.686349 0.949484 0.015516
C79   C     C_R   0.552008 0.313945 0.050248 0.016117
C80   C     C_R   0.560933 0.044062 0.315377 0.014607
C81   C     C_R   0.439028 0.956040 0.684586 0.016560
C82   C     C_R   0.347334 0.592316 0.936974 0.011254
C83   C     C_R   0.652628 0.408006 0.062705 0.012105
C84   C     C_R   0.929837 0.352298 0.590809 0.014980
C85   C     C_R   0.070190 0.647691 0.409188 0.014967
C86   C     C_R   0.683704 0.082755 0.321595 -0.122388
C87   C     C_R   0.436419 0.006892 0.307419 -0.017808
C88   C     C_R   0.316262 0.917340 0.678373 -0.121479
C89   C     C_R   0.902579 0.381799 0.730184 -0.119482
C90   C     C_R   0.097447 0.618190 0.269812 -0.120986
C91   C     C_R   0.370785 0.731859 0.920239 -0.122242
C92   C     C_R   0.629049 0.268443 0.079649 -0.121722
C93   C     C_R   0.639207 0.071502 0.273125 -0.122910
C94   C     C_R   0.360744 0.928620 0.726836 -0.121584
C95   C     C_R   0.321301 0.685515 0.912963 -0.126961
C96   C     C_R   0.678557 0.314799 0.086883 -0.127432
C97   C     C_R   0.897921 0.331240 0.683310 -0.119470
C98   C     C_R   0.678084 0.549213 0.042611 -0.019540
C99   C     C_R   0.102105 0.668750 0.316687 -0.120327
C100  C     C_R   0.530479 0.021631 0.407690 0.024881
C101  C     C_R   0.469494 0.978453 0.592276 0.025742
C102  C     C_R   0.965358 0.425870 0.545241 0.025298
C103  C     C_R   0.034676 0.574115 0.454756 0.025292
C104  C     C_R   0.423343 0.545975 0.968910 0.024046
C105  C     C_R   0.576691 0.454329 0.030658 0.024113
C106  C     C_R   0.577147 0.030025 0.457212 0.025267
C107  C     C_R   0.422832 0.970050 0.542756 0.025393
C108  C     C_R   0.473509 0.593246 0.975625 0.023956
Cu1   Cu    Cu3+1 0.995180 0.995180 0.424630 1.015749
Cu2   Cu    Cu3+1 0.004820 0.004820 0.575370 1.021676
Cu3   Cu    Cu3+1 0.995180 0.424630 0.995180 0.987579
Cu4   Cu    Cu3+1 0.004820 0.575370 0.004820 1.019705
Cu5   Cu    Cu3+1 0.424630 0.995180 0.995180 0.963273
Cu6   Cu    Cu3+1 0.575370 0.004820 0.004820 1.022102
H1    H     H_    0.332538 0.918484 0.797061 0.099493
H2    H     H_    0.347155 0.803150 0.906361 0.098279
H3    H     H_    0.122071 0.636284 0.198395 0.116078
H4    H     H_    0.877953 0.363708 0.801601 0.116169
H5    H     H_    0.467060 0.931733 0.803869 0.130372
H6    H     H_    0.532882 0.068368 0.196091 0.131279
H7    H     H_    0.104605 0.752704 0.419981 0.146150
H8    H     H_    0.895407 0.247296 0.580017 0.146451
H9    H     H_    0.756096 0.417664 0.099945 0.141236
H10   H     H_    0.243773 0.582672 0.899846 0.143996
H11   H     H_    0.247754 0.898104 0.572428 0.140227
H12   H     H_    0.667396 0.081673 0.202893 0.100930
H13   H     H_    0.752258 0.101917 0.427555 0.140256
H14   H     H_    0.517093 0.196916 0.076727 0.129713
H15   H     H_    0.482699 0.803391 0.923154 0.132039
H16   H     H_    0.082059 0.513116 0.197220 0.148420
H17   H     H_    0.917952 0.486882 0.802774 0.147552
H18   H     H_    0.216450 0.105665 0.213626 0.093117
H19   H     H_    0.783506 0.894255 0.786370 0.111862
H20   H     H_    0.838773 0.289828 0.294656 0.067936
H21   H     H_    0.161207 0.710194 0.705370 0.071516
H22   H     H_    0.248808 0.218724 0.947999 0.137833
H23   H     H_    0.130400 0.724611 0.280471 0.126326
H24   H     H_    0.709990 0.704149 0.162041 0.083999
H25   H     H_    0.869622 0.275382 0.719525 0.127415
H26   H     H_    0.737764 0.277792 0.110059 0.114519
H27   H     H_    0.262026 0.722521 0.889903 0.115388
H28   H     H_    0.256415 0.895115 0.712867 0.116651
H29   H     H_    0.743547 0.104986 0.287101 0.116106
H30   H     H_    0.652585 0.197137 0.093707 0.099115
O1    O     O_R   0.124540 0.978640 0.385460 -0.463259
O2    O     O_R   0.124540 0.385460 0.978640 -0.492142
O3    O     O_R   0.021360 0.875460 0.614540 -0.466830
O4    O     O_R   0.978640 0.124540 0.385460 -0.467301
O5    O     O_R   0.013780 0.867370 0.487190 -0.520021
O6    O     O_R   0.986220 0.132630 0.512810 -0.519268
O7    O     O_R   0.867370 0.487190 0.013780 -0.536396
O8    O     O_R   0.132630 0.512810 0.986220 -0.537324
O9    O     O_R   0.487190 0.013780 0.867370 -0.527008
O10   O     O_R   0.512810 0.986220 0.132630 -0.532438
O11   O     O_R   0.512810 0.132630 0.986220 -0.518777
O12   O     O_R   0.875460 0.021360 0.614540 -0.463601
O13   O     O_R   0.487190 0.867370 0.013780 -0.531170
O14   O     O_R   0.986220 0.512810 0.132630 -0.531709
O15   O     O_R   0.013780 0.487190 0.867370 -0.517710
O16   O     O_R   0.132630 0.986220 0.512810 -0.528637
O17   O     O_R   0.867370 0.013780 0.487190 -0.529123
O18   O     O_2   0.214773 0.985148 0.221021 -0.459349
O19   O     O_2   0.785265 0.014730 0.779006 -0.448255
O20   O     O_2   0.955676 0.230088 0.224151 -0.466553
O21   O     O_2   0.044286 0.769924 0.775861 -0.455702
O22   O     O_2   0.272263 0.310216 0.833365 -0.488254
O23   O     O_R   0.978640 0.385460 0.124540 -0.465586
O24   O     O_2   0.769728 0.775704 0.046478 -0.447360
O25   O     O_R   0.021360 0.614540 0.875460 -0.457206
O26   O     O_R   0.385460 0.124540 0.978640 -0.529447
O27   O     O_R   0.614540 0.875460 0.021360 -0.458812
O28   O     O_R   0.614540 0.021360 0.875460 -0.456885
O29   O     O_R   0.385460 0.978640 0.124540 -0.464182
O30   O     O_R   0.875460 0.614540 0.021360 -0.454345

loop_
_geom_bond_atom_site_label_1
_geom_bond_atom_site_label_2
_ccdc_geom_bond_type
C101  C107  A    
Cu4   O30   S    
C22   O6    A    
C57   H8    S    
C29   C42   S    
C45   C71   A    
C84   C102  A    
C64   C77   A    
Cu6   O11   S    
C33   O17   A    
Cu3   Cu4   S    
C58   C98   A    
C59   C82   A    
C50   C71   A    
C3    C79   A    
C63   C65   A    
C56   C85   A    
C33   O12   A    
C23   O30   A    
C81   C101  A    
C3    C105  A    
Cu6   O28   S    
C28   C46   S    
C58   H9    S    
Cu4   O14   S    
C84   C97   A    
C32   C36   A    
C15   C106  A    
C53   C81   A    
C60   H11   S    
C11   H24   S    
C10   H22   S    
C47   C76   A    
C7    H19   S    
C20   C51   S    
C23   C49   S    
C13   C57   A    
C66   C75   A    
C92   C96   A    
C31   C40   S    
C3    C18   A    
C78   C108  A    
C15   C35   A    
C12   C37   A    
Cu3   O15   S    
C93   H12   S    
C5    C16   A    
C52   C69   A    
C2    C50   A    
C1    C40   A    
C49   C98   A    
Cu5   Cu6   S    
C74   C88   A    
C6    O18   D    
C4    C75   A    
C49   C72   A    
C4    C102  A    
C1    C34   A    
Cu4   O8    S    
C44   C70   A    
C51   C70   A    
C9    H21   S    
C24   O8    A    
C25   C47   S    
C21   C61   A    
C31   O16   A    
C85   C103  A    
C26   C48   S    
C19   C108  A    
C27   C45   S    
C7    C68   S    
C80   C100  A    
C27   O11   A    
C5    C103  A    
C39   C65   A    
C30   C44   S    
C30   O15   A    
C88   H28   S    
C86   H29   S    
C41   C68   A    
C55   H6    S    
C24   C50   S    
Cu6   O27   S    
C77   C90   A    
C88   C94   A    
C35   C76   A    
C48   C87   A    
C8    H20   S    
C90   H3    S    
C62   C79   A    
Cu2   O12   S    
C9    C70   S    
C32   C64   A    
C13   C36   A    
C6    H18   S    
C91   H2    S    
C8    O20   D    
Cu3   O2    S    
C11   C72   S    
C39   C98   A    
C18   C104  A    
C54   C62   A    
C26   O29   A    
C61   C73   A    
C7    O19   D    
C40   C67   A    
C42   C69   A    
C83   C105  A    
C89   C97   A    
C31   O1    A    
C37   C43   A    
Cu1   O5    S    
C43   C44   A    
C30   O25   A    
C14   C34   A    
C47   C68   A    
C85   C99   A    
C86   C93   A    
C13   C52   A    
C2    C38   A    
C28   O27   A    
Cu4   O25   S    
C38   C54   A    
C10   O22   D    
C55   C80   A    
C8    C69   S    
C57   C84   A    
C61   H13   S    
C17   C37   A    
C15   C101  A    
C27   O26   A    
C79   C92   A    
C29   O14   A    
C19   C39   A    
C46   C65   A    
C55   C87   A    
C21   C41   A    
C4    C17   A    
C74   C107  A    
C25   O28   A    
C16   C102  A    
C6    C67   S    
C22   O4    A    
C45   C54   A    
C95   H27   S    
C11   O24   D    
C20   O3    A    
C1    C60   A    
C53   C76   A    
Cu3   O23   S    
C20   O5    A    
C5    C77   A    
Cu2   O3    S    
C19   C105  A    
C90   C99   A    
C104  C108  A    
C12   C51   A    
Cu2   O16   S    
Cu5   O29   S    
C66   H17   S    
C59   H10   S    
C23   O7    A    
C14   C107  A    
C82   C104  A    
C82   C95   A    
C2    C59   A    
C46   C72   A    
Cu1   O1    S    
Cu5   O9    S    
Cu2   O6    S    
Cu3   O7    S    
C96   H26   S    
C94   H1    S    
C53   H5    S    
C14   C100  A    
Cu5   O26   S    
C21   C35   A    
C78   C91   A    
C100  C106  A    
C33   C41   S    
C56   H7    S    
C29   O23   A    
C9    O21   D    
C18   C38   A    
C25   O9    A    
Cu1   O17   S    
Cu1   Cu2   S    
C16   C36   A    
C62   H14   S    
C81   C94   A    
C73   C106  A    
C43   C66   A    
C83   C96   A    
C60   C74   A    
C28   O13   A    
C12   C56   A    
C97   H25   S    
C22   C52   S    
C34   C87   A    
C63   H15   S    
C48   C67   A    
C17   C103  A    
C92   H30   S    
C73   C86   A    
C26   O10   A    
C75   C89   A    
C10   C71   S    
C91   C95   A    
Cu1   O4    S    
C89   H4    S    
C64   H16   S    
C32   C42   A    
C99   H23   S    
C24   O2    A    
Cu5   O13   S    
C80   C93   A    
C58   C83   A    
Cu6   O10   S    
C63   C78   A    
