data_str_m9_o1_o16_f0_sra.sym.25
_audit_creation_date              2012-12-11T15:47:02-0500
_audit_creation_method            fapswitch 2.2
_symmetry_space_group_name_H-M    P1
_symmetry_Int_Tables_number       1
_space_group_crystal_system       triclinic
_cell_length_a                    20.250093
_cell_length_b                    7.262519
_cell_length_c                    13.655071
_cell_angle_alpha                 89.999399
_cell_angle_beta                  103.519054
_cell_angle_gamma                 89.999878
_cell_volume                      1952.56312322

loop_
_atom_site_label
_atom_site_type_symbol
_atom_type_description
_atom_site_fract_x
_atom_site_fract_y
_atom_site_fract_z
_atom_type_partial_charge
O1    O     O_R   0.449560 0.506810 0.599700 -0.536528
O2    O     O_R   0.550440 0.006810 0.400300 -0.536528
O3    O     O_R   0.587960 0.180060 0.595760 -0.546415
O4    O     O_R   0.412040 0.680060 0.404240 -0.546417
C1    C     C_R   0.615079 0.344132 0.616977 0.680800
C2    C     C_R   0.384921 0.844135 0.383022 0.680798
O5    O     O_R   0.452380 0.177430 0.611700 -0.539744
O6    O     O_R   0.547620 0.677430 0.388300 -0.539742
O7    O     O_R   0.413900 0.001890 0.416350 -0.541336
O8    O     O_R   0.586100 0.501890 0.583650 -0.541335
C3    C     C_R   0.436685 0.345684 0.637123 0.684505
C4    C     C_R   0.563312 0.845684 0.362872 0.684499
O9    O     O_3   0.487530 0.337490 0.435890 -0.380164
O10   O     O_3   0.512470 0.837490 0.564110 -0.380162
V1    V     V_3+5 0.502310 0.064660 0.511890 1.408897
V2    V     V_3+5 0.497690 0.564660 0.488110 1.408894
C5    C     C_R   0.602239 0.865059 0.109216 -0.152318
C6    C     C_R   0.397756 0.365275 0.890772 -0.152325
H1    H     H_    0.678198 0.871193 0.980832 0.125293
H2    H     H_    0.321795 0.371373 0.019159 0.125299
H3    H     H_    0.574309 0.869404 0.031148 0.114316
H4    H     H_    0.425686 0.369723 0.968837 0.114319
C7    C     C_R   0.600900 0.853878 0.284530 -0.021535
C8    C     C_R   0.399096 0.353890 0.715463 -0.021533
C9    C     C_R   0.926273 0.855899 0.308037 -0.167830
C10   C     C_R   0.073724 0.355939 0.691956 -0.167838
C11   C     C_R   0.891732 0.851097 0.384041 -0.123555
C12   C     C_R   0.108266 0.351218 0.615951 -0.123553
C13   C     C_R   0.821336 0.851826 0.361078 -0.143172
C14   C     C_R   0.178661 0.351955 0.638916 -0.143170
C15   C     C_R   0.782755 0.856904 0.260010 0.045832
C16   C     C_R   0.217243 0.356954 0.739985 0.045828
C17   C     C_R   0.818064 0.860989 0.180074 0.044482
C18   C     C_R   0.181933 0.361008 0.819920 0.044491
C19   C     C_R   0.710099 0.858096 0.236741 0.068521
C20   C     C_R   0.289898 0.358135 0.763253 0.068525
C21   C     C_R   0.673584 0.863858 0.134804 0.096185
C22   C     C_R   0.326412 0.363991 0.865186 0.096189
C23   C     C_R   0.707774 0.867461 0.058150 -0.183173
C24   C     C_R   0.292221 0.367591 0.941841 -0.183180
C25   C     C_R   0.778570 0.865283 0.077957 0.110488
C26   C     C_R   0.221426 0.365314 0.922036 0.110486
C27   C     C_R   0.671839 0.853341 0.311219 -0.200021
C28   C     C_R   0.328159 0.353280 0.688776 -0.200033
C29   C     C_R   0.566097 0.859799 0.183836 -0.169856
C30   C     C_R   0.433898 0.359969 0.816152 -0.169855
C31   C     C_R   0.891107 0.860961 0.207050 -0.058142
C32   C     C_R   0.108890 0.360960 0.792944 -0.058139
H5    H     H_    0.694926 0.848164 0.390621 0.090625
H6    H     H_    0.305074 0.347964 0.609380 0.090628
H7    H     H_    0.981349 0.856006 0.328275 0.103155
H8    H     H_    0.018648 0.356044 0.671717 0.103153
H9    H     H_    0.798976 0.848535 0.425131 0.107360
H10   H     H_    0.201021 0.348769 0.574862 0.107361
H11   H     H_    0.919868 0.847278 0.461915 0.120298
H12   H     H_    0.080131 0.347467 0.538076 0.120299
C33   C     C_R   0.217949 0.023150 0.222060 -0.155305
C34   C     C_R   0.782050 0.523145 0.777937 -0.155302
C35   C     C_R   0.283401 0.018734 0.284640 -0.158978
C36   C     C_R   0.716599 0.518728 0.715359 -0.158985
H13   H     H_    0.308781 0.147959 0.308505 0.117622
H14   H     H_    0.691217 0.647957 0.691500 0.117620
C37   C     C_R   0.315460 0.850009 0.315821 -0.037167
C38   C     C_R   0.684542 0.350000 0.684174 -0.037161
C39   C     C_R   0.279709 0.685951 0.283897 -0.154393
C40   C     C_R   0.720298 0.185937 0.716090 -0.154383
H15   H     H_    0.302085 0.553053 0.307527 0.116958
H16   H     H_    0.697925 0.053032 0.692458 0.116948
C41   C     C_R   0.214183 0.690606 0.221526 -0.161939
C42   C     C_R   0.785824 0.190595 0.778458 -0.161942
H17   H     H_    0.188021 0.561740 0.200173 0.123119
H18   H     H_    0.811989 0.061724 0.799803 0.123121
C43   C     C_R   0.182790 0.859115 0.188087 -0.031663
C44   C     C_R   0.817212 0.359109 0.811905 -0.031657
O11   O     O_R   0.913920 0.203370 0.916260 -0.542960
O12   O     O_R   0.086080 0.703370 0.083740 -0.542960
O13   O     O_R   0.047620 0.535540 0.888290 -0.539982
O14   O     O_R   0.952380 0.035540 0.111710 -0.539983
C45   C     C_R   0.066147 0.368638 0.865745 0.696558
C46   C     C_R   0.933850 0.868640 0.134249 0.696575
O15   O     O_R   0.912040 0.532780 0.904220 -0.548851
O16   O     O_R   0.087960 0.032780 0.095780 -0.548848
O17   O     O_R   0.949550 0.708160 0.099720 -0.537681
O18   O     O_R   0.050450 0.208160 0.900280 -0.537683
C47   C     C_R   0.885796 0.364862 0.881990 0.670915
C48   C     C_R   0.114205 0.864863 0.118006 0.670917
O19   O     O_3   0.012480 0.375300 0.064060 -0.376790
O20   O     O_3   0.987520 0.875300 0.935940 -0.376792
V3    V     V_3+5 0.997690 0.648180 0.988110 1.395918
V4    V     V_3+5 0.002310 0.148180 0.011890 1.395914
H19   H     H_    0.511070 0.859945 0.163173 0.104186
H20   H     H_    0.488923 0.360195 0.836812 0.104189
C49   C     C_3   0.807736 0.866177 0.986191 -0.764315
H21   H     H_    0.767833 0.869482 0.914935 0.181577
H22   H     H_    0.838788 0.990914 0.986004 0.221579
H23   H     H_    0.836885 0.738573 0.983695 0.222743
C50   C     C_3   0.192261 0.366122 0.013802 -0.764311
H24   H     H_    0.232162 0.369425 0.085057 0.181576
H25   H     H_    0.161192 0.490824 0.014006 0.221575
H26   H     H_    0.163124 0.238489 0.016278 0.222747
H27   H     H_    0.194982 0.155977 0.200603 0.121880
H28   H     H_    0.805014 0.655980 0.799396 0.121869

loop_
_geom_bond_atom_site_label_1
_geom_bond_atom_site_label_2
_ccdc_geom_bond_type
C40   H16   S    
C37   C39   A    
C49   H21   S    
C7    C29   A    
C11   C13   A    
O1    C3    A    
O2    C4    A    
C2    O7    A    
C50   H24   S    
C12   H12   S    
C23   C25   A    
O14   V4    S    
O5    C3    A    
C14   H10   S    
C4    C7    S    
O13   V3    S    
C16   C20   A    
C32   C45   S    
C19   C21   A    
C5    C29   A    
C45   O18   A    
H2    C24   S    
C11   H11   S    
C33   C35   A    
C30   H20   S    
C34   C36   A    
C3    C8    S    
C7    C27   A    
C36   H14   S    
O6    V2    S    
C33   C43   A    
C41   H17   S    
O11   V4    S    
O11   C47   A    
C25   C49   S    
C39   H15   S    
C18   C26   A    
C42   C44   A    
C15   C17   A    
C41   C43   A    
C34   H28   S    
C19   C27   A    
C9    C31   A    
C10   C32   A    
O12   V3    S    
O15   V3    S    
C24   C26   A    
C49   H22   S    
C22   C24   A    
O18   V4    S    
C31   C46   S    
C46   O17   A    
C6    C30   A    
C50   H25   S    
O13   C45   A    
O17   V3    S    
C35   H13   S    
O4    C2    A    
C26   C50   S    
C27   H5    S    
O5    V1    S    
O16   C48   A    
C5    H3    S    
C1    C38   S    
C38   C40   A    
C2    C37   S    
O4    V2    S    
C9    H7    S    
C10   H8    S    
O6    C4    A    
O1    V2    S    
C5    C21   A    
O2    V1    S    
H1    C23   S    
C49   H23   S    
C17   C31   A    
C15   C19   A    
C20   C28   A    
C18   C32   A    
O12   C48   A    
C50   H26   S    
O3    V1    S    
C34   C44   A    
C28   H6    S    
C39   C41   A    
C6    H4    S    
C10   C12   A    
O3    C1    A    
O9    V2    S    
C9    C11   A    
C33   H27   S    
C35   C37   A    
O16   V4    S    
C36   C38   A    
C8    C30   A    
C12   C14   A    
C6    C22   A    
C17   C25   A    
C1    O8    A    
C13   C15   A    
O8    V2    S    
C14   C16   A    
C40   C42   A    
C13   H9    S    
C8    C28   A    
C20   C22   A    
O14   C46   A    
C44   C47   S    
O7    V1    S    
C29   H19   S    
C43   C48   S    
O20   V3    S    
C21   C23   A    
O19   V4    S    
O10   V1    S    
C42   H18   S    
O15   C47   A    
C16   C18   A    
