data_str_m2_o10_o29_f0_pcu.sym.85
_audit_creation_date              2012-10-26T20:17:42-0400
_audit_creation_method            fapswitch 2.2
_symmetry_space_group_name_H-M    P1
_symmetry_Int_Tables_number       1
_space_group_crystal_system       triclinic
_cell_length_a                    27.741924
_cell_length_b                    8.671163
_cell_length_c                    7.419957
_cell_angle_alpha                 103.000988
_cell_angle_beta                  92.938826
_cell_angle_gamma                 91.169895
_cell_volume                      1735.92812615

loop_
_atom_site_label
_atom_site_type_symbol
_atom_type_description
_atom_site_fract_x
_atom_site_fract_y
_atom_site_fract_z
_atom_type_partial_charge
C1    C     C_R   0.498597 0.199736 0.453321 0.553135
C2    C     C_R   0.872048 0.346764 0.393241 0.020129
C3    C     C_R   0.354915 0.508024 0.519769 -0.039152
C4    C     C_R   0.645313 0.491897 0.484086 -0.034506
C5    C     C_R   0.974910 0.359779 0.427938 -0.001287
C6    C     C_R   0.026035 0.653660 0.566679 0.001497
C7    C     C_R   0.974658 0.648631 0.543379 0.016753
C8    C     C_R   0.025959 0.363672 0.459503 0.018328
C9    C     C_R   0.949320 0.500576 0.477007 0.030435
C10   C     C_R   0.051452 0.511416 0.522471 0.031539
C11   C     C_R   0.948990 0.219114 0.341227 -0.126280
C12   C     C_R   0.501388 0.800264 0.546682 0.554034
C13   C     C_R   0.052725 0.795857 0.642447 -0.137863
C14   C     C_R   0.898285 0.208082 0.322670 -0.005474
C15   C     C_R   0.103177 0.802452 0.664191 -0.007463
C16   C     C_R   0.407554 0.502134 0.505226 0.554604
C17   C     C_R   0.592490 0.497611 0.495059 0.556722
C18   C     C_R   0.052427 0.223411 0.435849 -0.155139
C19   C     C_R   0.947491 0.787308 0.581655 -0.162217
C20   C     C_2   0.497869 0.031886 0.426916 -0.151163
C21   C     C_2   0.502096 0.968113 0.573092 -0.151296
C22   C     C_R   0.178338 0.378126 0.520705 0.398454
C23   C     C_R   0.102794 0.516121 0.542941 -0.038964
C24   C     C_R   0.822094 0.627863 0.505051 0.399786
C25   C     C_R   0.180292 0.660031 0.600588 0.404874
C26   C     C_R   0.820822 0.346886 0.399264 0.410532
C27   C     C_R   0.275049 0.539706 0.387834 -0.123436
C28   C     C_R   0.716424 0.460899 0.303966 -0.121007
C29   C     C_R   0.324788 0.531886 0.371544 -0.164727
C30   C     C_R   0.666415 0.467292 0.312369 -0.167304
C31   C     C_R   0.334541 0.493474 0.684954 -0.134494
C32   C     C_R   0.675032 0.509104 0.646704 -0.132139
C33   C     C_R   0.284261 0.495122 0.699525 0.332113
C34   C     C_R   0.897963 0.493540 0.460045 -0.036990
C35   C     C_R   0.725587 0.510311 0.640291 0.332559
C36   C     C_R   0.254707 0.520403 0.550391 0.264052
C37   C     C_R   0.746066 0.482857 0.466740 0.269280
C38   C     C_3   0.274222 0.338961 0.906355 -0.124774
C39   C     C_3   0.746138 0.664329 0.930254 -0.114534
C40   C     C_3   0.872818 0.050446 0.224349 -0.226304
C41   C     C_3   0.905154 0.917946 0.126836 -0.340629
C42   C     C_3   0.875534 0.769477 0.031058 -0.424567
C43   C     C_3   0.126804 0.958067 0.771609 -0.221097
C44   C     C_3   0.146673 0.941877 0.963579 -0.271012
C45   C     C_R   0.127889 0.373435 0.505929 0.021251
C46   C     C_3   0.183888 0.072669 0.047638 -0.416224
C47   C     C_R   0.872472 0.634434 0.511072 0.013902
C48   C     C_R   0.102319 0.228631 0.456271 -0.137166
C49   C     C_R   0.897562 0.779768 0.567687 -0.139507
C50   C     C_R   0.129102 0.662233 0.602741 0.020302
Cu1   Cu    Cu3+1 0.505380 0.517380 0.684380 0.958677
Cu2   Cu    Cu3+1 0.494620 0.482620 0.315620 0.959477
H1    H     H_    0.357643 0.480983 0.802507 0.126372
H2    H     H_    0.252053 0.559970 0.273669 0.157356
H3    H     H_    0.968580 0.117324 0.280963 0.106181
H4    H     H_    0.035014 0.904599 0.694381 0.100990
H5    H     H_    0.035688 0.106507 0.406109 0.100874
H6    H     H_    0.963334 0.905119 0.621580 0.104403
H7    H     H_    0.493845 0.960454 0.285978 0.135296
H8    H     H_    0.506118 0.039546 0.714031 0.134944
H9    H     H_    0.312420 0.337226 0.958101 0.102853
H10   H     H_    0.265743 0.237151 0.786733 0.173446
H11   H     H_    0.251546 0.323724 0.019944 0.138986
H12   H     H_    0.658849 0.520458 0.778371 0.126788
H13   H     H_    0.711301 0.654642 0.994605 0.103801
H14   H     H_    0.747221 0.770218 0.868862 0.166748
H15   H     H_    0.774369 0.682346 0.044564 0.149392
H16   H     H_    0.857292 0.718937 0.135428 0.164436
H17   H     H_    0.848260 0.797551 0.929407 0.187571
H18   H     H_    0.899747 0.679406 0.956303 0.165667
H19   H     H_    0.925563 0.959826 0.020818 0.166284
H20   H     H_    0.930926 0.883856 0.229585 0.169088
H21   H     H_    0.846722 0.074482 0.115948 0.194128
H22   H     H_    0.852836 0.003731 0.327725 0.208029
H23   H     H_    0.462475 0.380389 0.949137 0.237648
H24   H     H_    0.214339 0.067568 0.955480 0.177452
H25   H     H_    0.167328 0.190511 0.068568 0.160548
H26   H     H_    0.198375 0.053754 0.182615 0.204507
H27   H     H_    0.116421 0.946825 0.057224 0.147302
H28   H     H_    0.164111 0.826541 0.955651 0.204107
H29   H     H_    0.154564 0.000390 0.690375 0.217397
H30   H     H_    0.100511 0.054778 0.793995 0.119445
H31   H     H_    0.537516 0.619635 0.050866 0.239672
H32   H     H_    0.120815 0.117636 0.432025 0.150935
H33   H     H_    0.878626 0.889596 0.603267 0.164284
H34   H     H_    0.644339 0.452037 0.184528 0.143127
H35   H     H_    0.339708 0.546804 0.244285 0.153927
H36   H     H_    0.732342 0.440468 0.170852 0.154845
N1    N     N_R   0.203230 0.519681 0.559748 -0.367729
N2    N     N_R   0.797585 0.485609 0.456121 -0.367828
N3    N     N_2   0.486510 0.456430 0.038510 -0.258794
N4    N     N_2   0.513490 0.543570 0.961490 -0.258239
O1    O     O_R   0.503500 0.286120 0.619780 -0.505800
O2    O     O_2   0.797553 0.762824 0.549528 -0.518113
O3    O     O_2   0.794155 0.210731 0.354047 -0.507907
O4    O     O_2   0.207297 0.795333 0.635319 -0.510491
O5    O     O_3   0.263497 0.485022 0.862446 -0.562672
O6    O     O_3   0.755604 0.524378 0.799096 -0.558650
O7    O     O_R   0.496500 0.713880 0.380220 -0.505328
O8    O     O_R   0.494410 0.256780 0.308360 -0.495789
O9    O     O_R   0.505590 0.743220 0.691640 -0.495095
O10   O     O_R   0.434810 0.514700 0.655690 -0.508435
O11   O     O_R   0.565190 0.485300 0.344310 -0.505152
O12   O     O_R   0.425720 0.485350 0.344280 -0.501084
O13   O     O_R   0.574280 0.514650 0.655720 -0.504195
O14   O     O_2   0.202547 0.242265 0.493910 -0.543250

loop_
_geom_bond_atom_site_label_1
_geom_bond_atom_site_label_2
_ccdc_geom_bond_type
C36   N1    S    
Cu2   O11   S    
C23   C45   A    
C27   C29   A    
C41   C42   S    
C46   H24   S    
C27   H2    S    
C47   C49   A    
Cu1   O10   S    
H31   N4    S    
C37   N2    S    
C35   C37   A    
C5    C11   A    
C17   O13   A    
C8    C10   A    
C11   C14   A    
C42   H18   S    
C33   C36   A    
C40   H21   S    
C15   C50   A    
C3    C29   A    
C25   C50   A    
C12   O7    A    
C16   O12   A    
C28   H36   S    
C31   C33   A    
C30   H34   S    
C35   O6    S    
H23   N3    S    
C41   H19   S    
C38   H9    S    
C2    C34   A    
C42   H16   S    
C39   H13   S    
C38   O5    S    
C1    O8    A    
C44   C46   S    
C19   H6    S    
Cu1   Cu2   S    
C32   C35   A    
C49   H33   S    
C44   H28   S    
C32   H12   S    
C21   H8    S    
N3    N4    D    
C46   H26   S    
C23   C50   A    
C22   O14   S    
C12   C21   S    
Cu2   O8    S    
C42   H17   S    
C8    C18   A    
C48   H32   S    
C24   N2    A    
C43   C44   S    
C5    C9    A    
C24   O2    S    
Cu1   N4    S    
C5    C8    A    
C19   C49   A    
C18   H5    S    
Cu1   O13   S    
C2    C26   A    
C31   H1    S    
C20   H7    S    
C3    C31   A    
C4    C32   A    
Cu1   O1    S    
C41   H20   S    
C4    C17   S    
C16   O10   A    
C40   C41   S    
C7    C19   A    
C13   C15   A    
C9    C34   A    
C43   H29   S    
C39   H14   S    
Cu1   O9    S    
C11   H3    S    
C38   H11   S    
C45   C48   A    
C26   O3    S    
C7    C9    A    
Cu2   O12   S    
C1    C20   S    
C24   C47   A    
C39   H15   S    
C44   H27   S    
C39   O6    S    
C18   C48   A    
C6    C10   A    
C46   H25   S    
C6    C7    A    
C10   C23   A    
C26   N2    A    
Cu2   O7    S    
C25   N1    A    
C27   C36   A    
C13   H4    S    
C28   C30   A    
C17   O11   A    
C15   C43   S    
C12   O9    A    
C6    C13   A    
C28   C37   A    
C22   N1    A    
C40   H22   S    
C33   O5    S    
C2    C14   A    
C29   H35   S    
C14   C40   S    
C22   C45   A    
C20   C21   D    
C25   O4    S    
C1    O1    A    
C43   H30   S    
Cu2   N3    S    
C34   C47   A    
C4    C30   A    
C3    C16   S    
C38   H10   S    
