data_str_m2_o4_o10_f0_pcu.sym.76
_audit_creation_date              2012-10-26T20:13:56-0400
_audit_creation_method            fapswitch 2.2
_symmetry_space_group_name_H-M    P1
_symmetry_Int_Tables_number       1
_space_group_crystal_system       triclinic
_cell_length_a                    8.730356
_cell_length_b                    10.837177
_cell_length_c                    9.540526
_cell_angle_alpha                 89.756133
_cell_angle_beta                  97.698606
_cell_angle_gamma                 90.427242
_cell_volume                      894.486394784

loop_
_atom_site_label
_atom_site_type_symbol
_atom_type_description
_atom_site_fract_x
_atom_site_fract_y
_atom_site_fract_z
_atom_type_partial_charge
C1    C     C_R   0.507981 0.262425 0.501093 0.538008
C2    C     C_R   0.566834 0.595096 0.933916 0.156152
C3    C     C_3   0.731514 0.636166 0.948200 -0.280052
C4    C     C_R   0.203975 0.498548 0.464031 0.553660
C5    C     C_3   0.729680 0.638585 0.107112 -0.277653
C6    C     C_R   0.498457 0.737735 0.499304 0.555285
C7    C     C_R   0.796138 0.499664 0.536151 0.547673
C8    C     C_2   0.038442 0.494964 0.444563 -0.152812
C9    C     C_2   0.961916 0.500355 0.556318 -0.158904
C10   C     C_R   0.575010 0.061273 0.624107 0.035947
C11   C     C_R   0.527625 0.129428 0.500620 -0.026608
C12   C     C_R   0.492918 0.936802 0.369725 -0.159593
C13   C     C_R   0.499873 0.065439 0.371082 -0.155961
C14   C     C_3   0.731465 0.202147 0.881465 0.028469
C15   C     C_3   0.889766 0.201087 0.972059 -0.259061
C16   C     C_3   0.955801 0.330794 0.996612 -0.486286
C17   C     C_R   0.508795 0.871045 0.497971 -0.006769
C18   C     C_R   0.553854 0.935451 0.622493 0.003574
C19   C     C_3   0.495137 0.933419 0.761996 -0.197465
C20   C     C_3   0.539031 0.069681 0.773702 0.130119
C21   C     C_R   0.565755 0.595691 0.081049 0.157620
C22   C     C_R   0.418455 0.414212 0.064901 -0.018335
C23   C     C_R   0.416730 0.415213 0.915707 -0.034097
Cu1   Cu    Cu3+1 0.499990 0.499980 0.640670 0.918470
Cu2   Cu    Cu3+1 0.500010 0.500020 0.359330 0.935744
H1    H     H_    0.979548 0.487095 0.337495 0.114391
H2    H     H_    0.442203 0.131291 0.791827 0.102757
H3    H     H_    0.356296 0.342644 0.113439 0.110843
H4    H     H_    0.021264 0.506523 0.663811 0.120865
H5    H     H_    0.563786 0.873524 0.840831 0.163569
H6    H     H_    0.652493 0.261215 0.933050 0.148087
H7    H     H_    0.745967 0.239644 0.775239 0.164874
H8    H     H_    0.879128 0.157780 0.076228 0.179596
H9    H     H_    0.971006 0.145163 0.918620 0.163885
H10   H     H_    0.967551 0.376552 0.894170 0.146623
H11   H     H_    0.071504 0.325920 0.060529 0.141022
H12   H     H_    0.352437 0.344805 0.852369 0.108018
H13   H     H_    0.879261 0.385580 0.055838 0.149356
H14   H     H_    0.809027 0.565014 0.913868 0.148515
H15   H     H_    0.746635 0.728896 0.902308 0.134442
H16   H     H_    0.807507 0.569645 0.164278 0.142615
H17   H     H_    0.740227 0.733177 0.152166 0.135366
H18   H     H_    0.474426 0.114152 0.271387 0.139649
H19   H     H_    0.466601 0.889924 0.269226 0.138854
H20   H     H_    0.368149 0.917153 0.751221 0.090334
N1    N     N_R   0.500980 0.500930 0.148050 -0.230690
N2    N     N_R   0.500990 0.500890 0.852140 -0.237313
O1    O     O_R   0.500000 0.319640 0.618810 -0.528865
O2    O     O_R   0.500020 0.319680 0.381230 -0.506970
O3    O     O_R   0.274830 0.499980 0.591380 -0.497415
O4    O     O_R   0.274850 0.500020 0.353800 -0.499292
O5    O     O_R   0.499980 0.680320 0.618770 -0.496433
O6    O     O_R   0.500000 0.680360 0.381190 -0.502682
O7    O     O_R   0.725150 0.499980 0.646200 -0.512620
O8    O     O_R   0.725170 0.500020 0.408620 -0.498522
O9    O     O_3   0.674319 0.080354 0.872934 -0.579983

loop_
_geom_bond_atom_site_label_1
_geom_bond_atom_site_label_2
_ccdc_geom_bond_type
C12   C17   A    
Cu1   O5    S    
C14   O9    S    
C5    H17   S    
C19   H20   S    
C1    O1    A    
C20   H2    S    
C9    H4    S    
C2    N2    A    
C8    H1    S    
C15   H9    S    
C19   C20   S    
C1    C11   S    
C7    O8    A    
C14   H6    S    
C4    C8    S    
Cu1   N2    S    
C2    C21   A    
Cu2   O4    S    
C2    C3    S    
C3    H14   S    
C12   H19   S    
C22   H3    S    
C16   H11   S    
C12   C13   A    
C11   C13   A    
C10   C20   S    
C10   C18   A    
C22   N1    A    
C23   H12   S    
Cu2   O6    S    
C3    H15   S    
C17   C18   A    
C20   O9    S    
C14   H7    S    
C16   H10   S    
Cu1   O3    S    
Cu2   O2    S    
C23   N2    A    
C10   C11   A    
C6    O6    A    
Cu1   O7    S    
C15   C16   S    
Cu1   O1    S    
C13   H18   S    
C5    C21   S    
Cu1   Cu2   S    
C21   N1    A    
C16   H13   S    
C7    C9    S    
C6    C17   S    
C5    H16   S    
C14   C15   S    
C18   C19   S    
C4    O4    A    
C7    O7    A    
C6    O5    A    
C22   C23   A    
C19   H5    S    
C1    O2    A    
Cu2   N1    S    
C15   H8    S    
Cu2   O8    S    
C4    O3    A    
C8    C9    D    
C3    C5    S    
