data_str_m12_o9_o10_f0_bcu.sym.180
_audit_creation_date              2012-12-11T17:37:44-0500
_audit_creation_method            fapswitch 2.2
_symmetry_space_group_name_H-M    P1
_symmetry_Int_Tables_number       1
_space_group_crystal_system       triclinic
_cell_length_a                    13.039386
_cell_length_b                    13.05432
_cell_length_c                    15.400742
_cell_angle_alpha                 117.088336
_cell_angle_beta                  63.386747
_cell_angle_gamma                 97.473736
_cell_volume                      2077.65576839

loop_
_atom_site_label
_atom_site_type_symbol
_atom_type_description
_atom_site_fract_x
_atom_site_fract_y
_atom_site_fract_z
_atom_type_partial_charge
C1    C     C_R   0.999905 0.833081 0.055965 -0.118658
C2    C     C_R   0.672677 0.559803 0.320529 0.038160
C3    C     C_R   0.662949 0.459462 0.925924 0.156954
C4    C     C_R   0.089302 0.786629 0.295518 0.073388
C5    C     C_R   0.338563 0.516692 0.950792 -0.112898
C6    C     C_R   0.968494 0.179136 0.781068 -0.126889
C7    C     C_R   0.207361 0.494590 0.690255 -0.121818
C8    C     C_R   0.053758 0.254730 0.085471 -0.132324
C9    C     C_R   0.951398 0.171611 0.993613 -0.120054
C10   C     C_R   0.301338 0.590636 0.790061 -0.148682
C11   C     C_R   0.259390 0.417515 0.048033 -0.146105
C12   C     C_R   0.678938 0.479365 0.220124 -0.149799
C13   C     C_R   0.044378 0.277385 0.683171 -0.129561
C14   C     C_R   0.362287 0.435851 0.975331 0.148664
C15   C     C_R   0.029655 0.166768 0.676030 0.053097
C16   C     C_R   0.302350 0.555016 0.690797 0.065193
C17   C     C_R   0.009753 0.151255 0.041598 0.044731
C18   C     C_R   0.422952 0.887521 0.099531 -0.132531
C19   C     C_R   0.356743 0.888407 0.200766 -0.134823
C20   C     C_R   0.260663 0.969695 0.278705 0.124940
C21   C     C_R   0.232680 0.050827 0.254510 -0.207240
C22   C     C_R   0.297458 0.047654 0.152205 -0.143278
C23   C     C_R   0.755974 0.519659 0.893401 -0.169594
C24   C     C_R   0.392711 0.966523 0.075043 -0.097509
C25   C     C_R   0.156828 0.058674 0.479720 -0.245651
C26   C     C_R   0.072014 0.057691 0.576421 0.071211
C27   C     C_R   0.028615 0.951982 0.574484 0.018399
C28   C     C_R   0.070205 0.852910 0.477501 -0.217494
C29   C     C_R   0.126261 0.861871 0.380118 0.049400
C30   C     C_R   0.182424 0.961866 0.380150 0.028520
C31   C     C_R   0.930299 0.891366 0.722646 -0.184021
C32   C     C_R   0.830277 0.882340 0.805582 -0.135254
C33   C     C_R   0.722839 0.921763 0.827394 -0.100725
C34   C     C_R   0.025569 0.693837 0.296704 -0.146289
C35   C     C_R   0.715079 0.971189 0.766667 -0.121943
C36   C     C_R   0.815014 0.981491 0.684262 -0.138091
C37   C     C_R   0.923287 0.942347 0.662476 0.105848
C38   C     C_R   0.857663 0.358385 0.355947 -0.110305
C39   C     C_R   0.742605 0.397409 0.400278 -0.119950
C40   C     C_R   0.703412 0.512862 0.477714 0.126685
C41   C     C_R   0.776398 0.585190 0.518823 -0.199394
C42   C     C_R   0.892305 0.547049 0.470930 -0.133750
C43   C     C_R   0.933532 0.434773 0.387582 -0.101939
C44   C     C_R   0.501061 0.570935 0.593904 -0.260937
C45   C     C_R   0.676692 0.421653 0.990250 -0.119007
C46   C     C_R   0.390231 0.580387 0.605724 0.037118
C47   C     C_R   0.370701 0.597964 0.529833 0.055474
C48   C     C_R   0.465499 0.603118 0.441391 -0.167428
C49   C     C_R   0.576544 0.581197 0.424513 0.035501
C50   C     C_R   0.593673 0.562479 0.501015 0.017468
C51   C     C_R   0.241145 0.480110 0.452289 0.587058
C52   C     C_R   0.129521 0.444312 0.474246 -0.332672
C53   C     C_R   0.035646 0.512050 0.571239 -0.174549
C54   C     C_R   0.050337 0.620711 0.642030 -0.114600
C55   C     C_R   0.160584 0.658107 0.620751 -0.219928
C56   C     C_R   0.102005 0.795911 0.205161 -0.151824
C57   C     C_R   0.256901 0.585065 0.529164 -0.018282
C58   C     C_2   0.475646 0.394934 0.947649 -0.197993
C59   C     C_2   0.568447 0.439116 0.896951 -0.207304
C60   C     C_2   0.831925 0.958131 0.095522 -0.188831
C61   C     C_2   0.822901 0.044411 0.189784 -0.182393
C62   C     C_R   0.783399 0.577355 0.308706 -0.082077
C63   C     C_R   0.899196 0.748087 0.960017 -0.163945
C64   C     C_R   0.911479 0.852841 0.036364 0.135751
H1    H     H_    0.028917 0.894815 0.114311 0.097520
H2    H     H_    0.945000 0.113884 0.808132 0.121676
H3    H     H_    0.180769 0.455133 0.626984 0.111329
H4    H     H_    0.092577 0.273546 0.139404 0.082608
H5    H     H_    0.894519 0.114006 0.964210 0.104499
H6    H     H_    0.355281 0.650965 0.822071 0.096803
H7    H     H_    0.249005 0.364079 0.087519 0.098208
H8    H     H_    0.084421 0.300853 0.617345 0.093349
H9    H     H_    0.442377 0.964537 0.996075 0.096710
H10   H     H_    0.496469 0.824332 0.039421 0.106314
H11   H     H_    0.378749 0.824492 0.217661 0.117068
H12   H     H_    0.608040 0.444473 0.200577 0.122611
H13   H     H_    0.157832 0.112879 0.312877 0.110132
H14   H     H_    0.273836 0.108353 0.132870 0.108695
H15   H     H_    0.197611 0.136482 0.480305 0.119390
H16   H     H_    0.035754 0.773956 0.479515 0.121206
H17   H     H_    0.013333 0.862436 0.707428 0.124824
H18   H     H_    0.836002 0.845598 0.853482 0.100078
H19   H     H_    0.645882 0.914118 0.891498 0.095154
H20   H     H_    0.631758 0.001690 0.783587 0.110436
H21   H     H_    0.808324 0.019989 0.637597 0.115943
H22   H     H_    0.024355 0.407359 0.345851 0.106631
H23   H     H_    0.778793 0.548410 0.831820 0.092951
H24   H     H_    0.889183 0.270954 0.293233 0.115877
H25   H     H_    0.686408 0.340541 0.368940 0.117132
H26   H     H_    0.746921 0.674341 0.578715 0.133046
H27   H     H_    0.950886 0.606560 0.495309 0.133016
H28   H     H_    0.516248 0.552757 0.649561 0.134150
H29   H     H_    0.452843 0.612395 0.380258 0.144908
H30   H     H_    0.116646 0.361240 0.418913 0.125676
H31   H     H_    0.951039 0.480831 0.591080 0.150222
H32   H     H_    0.977157 0.672638 0.716602 0.121756
H33   H     H_    0.014088 0.648817 0.343475 0.101810
H34   H     H_    0.172065 0.737682 0.681280 0.137213
H35   H     H_    0.478534 0.348378 0.989611 0.128392
H36   H     H_    0.566732 0.482042 0.851653 0.125890
H37   H     H_    0.774447 0.963824 0.063943 0.134366
H38   H     H_    0.875329 0.043531 0.227779 0.130509
H39   H     H_    0.629764 0.359261 0.017555 0.088641
H40   H     H_    0.155765 0.849534 0.170131 0.130173
H41   H     H_    0.809252 0.639289 0.369130 0.115876
H42   H     H_    0.833515 0.731131 0.932049 0.094718
H43   H     H_    0.397570 0.555082 0.900551 0.087533
N1    N     N_R   0.037320 0.720000 0.995830 -0.044895
N2    N     N_R   0.946240 0.290870 0.848020 -0.043259
N3    N     N_R   0.146160 0.501170 0.788610 -0.038941
N4    N     N_R   0.025750 0.332680 0.063570 -0.035931
N5    N     N_R   0.962680 0.280000 0.004170 -0.043608
N6    N     N_R   0.209230 0.553860 0.848010 -0.039786
N7    N     N_R   0.175100 0.482030 0.063570 -0.041283
N8    N     N_R   0.996810 0.351820 0.788610 -0.038139
N9    N     N_R   0.790770 0.446140 0.151990 -0.042973
N10   N     N_R   0.824900 0.517970 0.936430 -0.038192
N11   N     N_R   0.003190 0.648180 0.211390 -0.042335
N12   N     N_R   0.774330 0.457010 0.995830 -0.044179
N13   N     N_R   0.053760 0.709130 0.151980 -0.042548
N14   N     N_R   0.853840 0.498830 0.211390 -0.039734
N15   N     N_R   0.974250 0.667320 0.936430 -0.037629
N16   N     N_R   0.225670 0.542990 0.004170 -0.044841
Ni1   Ni    Ni4+2 0.130310 0.630310 0.000000 0.213326
Ni2   Ni    Ni4+2 0.869690 0.369690 0.000000 0.214560
Ni3   Ni    Ni4+2 0.985660 0.509480 0.863750 0.217139
Ni4   Ni    Ni4+2 0.014340 0.490520 0.136250 0.219171
O1    O     O_3   0.336164 0.414393 0.357049 -0.687489
C65   C     C_3   0.351829 0.303278 0.346426 0.160735
H44   H     H_    0.365776 0.240663 0.263118 0.152996
H45   H     H_    0.277666 0.278523 0.404294 0.072661
C66   C     C_3   0.459702 0.293183 0.358510 -0.306843
H46   H     H_    0.533613 0.321241 0.303866 0.210500
H47   H     H_    0.445067 0.350012 0.443567 0.203367
C67   C     C_3   0.489437 0.169141 0.330157 -0.976244
H48   H     H_    0.417065 0.139118 0.384191 0.268196
H49   H     H_    0.567138 0.164942 0.341016 0.269155
H50   H     H_    0.507769 0.110715 0.244235 0.276782

loop_
_geom_bond_atom_site_label_1
_geom_bond_atom_site_label_2
_ccdc_geom_bond_type
C34   N11   A    
C67   H50   S    
C53   H31   S    
C41   C42   A    
C3    C23   A    
C19   C20   A    
C2    C12   A    
O1    C65   S    
N16   Ni1   S    
C62   H41   S    
C20   C30   S    
C53   C54   A    
C28   C29   A    
C26   C27   A    
N8    Ni3   S    
C18   C24   A    
C51   O1    S    
C36   C37   A    
C9    H5    S    
N14   Ni4   S    
N10   N12   A    
C38   C39   A    
C11   C14   A    
C11   H7    S    
C24   H9    S    
C44   C50   A    
C34   H33   S    
C18   C19   A    
C11   N7    A    
C45   H39   S    
C6    C15   A    
C46   C47   A    
C31   C32   A    
C66   H46   S    
C1    H1    S    
C52   H30   S    
C51   C57   A    
N10   Ni3   S    
C54   H32   S    
C4    C29   S    
C44   H28   S    
C65   C66   S    
C45   N12   A    
C9    N5    A    
C41   H26   S    
C18   H10   S    
C23   H23   S    
C21   C22   A    
C4    C56   A    
C59   H36   S    
C56   N13   A    
N1    Ni1   S    
C44   C46   A    
C14   C58   S    
C4    C34   A    
C48   H29   S    
C51   C52   A    
C67   H48   S    
C56   H40   S    
N9    N14   A    
C8    N4    A    
C16   C46   S    
C39   C40   A    
C15   C26   S    
C58   C59   D    
C3    C45   A    
C31   C37   A    
C38   H24   S    
C60   C61   D    
C35   C36   A    
N15   Ni3   S    
C29   C30   A    
C2    C49   S    
C47   C57   S    
C47   C48   A    
N5    Ni2   S    
C63   H42   S    
C33   H19   S    
N3    N6    A    
C22   H14   S    
C5    C14   A    
C13   N8    A    
C10   N6    A    
N3    Ni3   S    
N7    N16   A    
N12   Ni2   S    
N2    Ni2   S    
C40   C41   A    
C8    H4    S    
N9    Ni2   S    
C55   C57   A    
C12   H12   S    
N4    Ni4   S    
C6    N2    A    
C22   C24   A    
N11   Ni4   S    
C60   H37   S    
C1    C64   A    
C10   H6    S    
C63   N15   A    
C52   C53   A    
C65   H44   S    
C5    H43   S    
C9    C17   A    
C25   C30   A    
C67   H49   S    
C54   C55   A    
C48   C49   A    
N4    N5    A    
C25   H15   S    
C43   H22   S    
C7    C16   A    
C58   H35   S    
N1    N15   A    
C23   N10   A    
C35   H20   S    
C13   H8    S    
C36   H21   S    
C32   H18   S    
C5    N16   A    
C8    C17   A    
C31   H17   S    
C7    N3    A    
C60   C64   S    
C32   C33   A    
C13   C15   A    
C61   H38   S    
C25   C26   A    
C38   C43   A    
C10   C16   A    
N7    Ni4   S    
N6    Ni1   S    
C27   C37   S    
C66   C67   S    
C40   C50   S    
C55   H34   S    
C19   H11   S    
C33   C35   A    
C28   H16   S    
N11   N13   A    
N2    N8    A    
C1    N1    A    
C7    H3    S    
C63   C64   A    
N13   Ni1   S    
C6    H2    S    
C20   C21   A    
C66   H47   S    
C49   C50   A    
C42   C43   A    
C21   H13   S    
C27   C28   A    
C65   H45   S    
C2    C62   A    
C39   H25   S    
C62   N14   A    
C42   H27   S    
C12   N9    A    
C3    C59   S    
