data_str_m4_o22_o22_f0_acs.sym.39
_audit_creation_date              2012-12-11T15:06:59-0500
_audit_creation_method            fapswitch 2.2
_symmetry_space_group_name_H-M    P1
_symmetry_Int_Tables_number       1
_space_group_crystal_system       monoclinic
_cell_length_a                    19.771296
_cell_length_b                    11.29087
_cell_length_c                    18.715081
_cell_angle_alpha                 90.0
_cell_angle_beta                  89.515739
_cell_angle_gamma                 90.0
_cell_volume                      4177.71437079

loop_
_atom_site_label
_atom_site_type_symbol
_atom_type_description
_atom_site_fract_x
_atom_site_fract_y
_atom_site_fract_z
_atom_type_partial_charge
C1    C     C_R   0.761583 0.523517 0.639151 0.536624
C2    C     C_3   0.253215 0.056737 0.563154 0.064970
C3    C     C_R   0.739763 0.035195 0.151805 0.538035
C4    C     C_R   0.773572 0.131340 0.858412 0.525365
C5    C     C_R   0.226428 0.131340 0.141588 0.525365
C6    C     C_R   0.273572 0.631340 0.858412 0.525365
C7    C     C_R   0.726428 0.631340 0.141588 0.525365
C8    C     C_R   0.962683 0.353648 0.856597 0.553200
C9    C     C_R   0.037317 0.353648 0.143403 0.553199
C10   C     C_R   0.462683 0.853648 0.856597 0.553200
C11   C     C_R   0.537317 0.853648 0.143403 0.553199
C12   C     C_3   0.687482 0.131887 0.466262 -0.235488
C13   C     C_3   0.246785 0.556737 0.436846 0.064970
C14   C     C_3   0.312518 0.131887 0.533738 -0.235488
C15   C     C_3   0.187482 0.631887 0.466262 -0.235488
C16   C     C_3   0.812518 0.631887 0.533738 -0.235488
C17   C     C_3   0.693159 0.144767 0.547375 -0.229246
C18   C     C_3   0.306841 0.144767 0.452625 -0.229246
C19   C     C_3   0.193159 0.644767 0.547375 -0.229246
C20   C     C_3   0.806840 0.644768 0.452625 -0.229246
C21   C     C_3   0.756237 0.938947 0.480612 -0.217976
C22   C     C_3   0.243763 0.938947 0.519388 -0.217975
C23   C     C_3   0.256237 0.438947 0.480612 -0.217975
C24   C     C_3   0.753215 0.556737 0.563154 0.064970
C25   C     C_3   0.743763 0.438947 0.519388 -0.217975
C26   C     C_3   0.760604 0.090352 0.574231 0.066158
C27   C     C_3   0.239396 0.090352 0.425769 0.066158
C28   C     C_3   0.260604 0.590352 0.574231 0.066158
C29   C     C_3   0.739396 0.590352 0.425769 0.066158
C30   C     C_3   0.753992 0.957712 0.562018 -0.261839
C31   C     C_3   0.246008 0.957712 0.437982 -0.261839
C32   C     C_3   0.253992 0.457712 0.562018 -0.261839
C33   C     C_R   0.238416 0.523517 0.360849 0.536624
C34   C     C_3   0.746008 0.457712 0.437982 -0.261839
C35   C     C_3   0.823037 0.133415 0.529171 -0.217779
C36   C     C_3   0.176963 0.133414 0.470829 -0.217779
C37   C     C_3   0.323037 0.633415 0.529171 -0.217779
C38   C     C_3   0.676963 0.633414 0.470829 -0.217779
C39   C     C_3   0.003997 0.204133 0.458985 -0.233012
C40   C     C_3   0.996003 0.204133 0.541015 -0.233012
C41   C     C_3   0.503997 0.704133 0.458985 -0.233012
C42   C     C_3   0.496003 0.704133 0.541015 -0.233012
C43   C     C_3   0.064238 0.405844 0.473641 -0.213874
C44   C     C_R   0.261583 0.023517 0.639151 0.536624
C45   C     C_3   0.935762 0.405844 0.526359 -0.213874
C46   C     C_3   0.564238 0.905844 0.473641 -0.213874
C47   C     C_3   0.435762 0.905844 0.526359 -0.213874
C48   C     C_3   0.941764 0.390193 0.445279 -0.262876
C49   C     C_3   0.058236 0.390193 0.554721 -0.262876
C50   C     C_3   0.441764 0.890193 0.445279 -0.262876
C51   C     C_3   0.558236 0.890193 0.554721 -0.262876
C52   C     C_3   0.010344 0.332898 0.430917 0.064257
C53   C     C_3   0.989656 0.332898 0.569083 0.064257
C54   C     C_3   0.510344 0.832898 0.430917 0.064257
C55   C     C_R   0.738417 0.023517 0.360849 0.536624
C56   C     C_3   0.489656 0.832898 0.569083 0.064257
C57   C     C_3   0.815694 0.025662 0.045155 -0.225092
C58   C     C_3   0.184306 0.025663 0.954845 -0.225092
C59   C     C_3   0.315694 0.525663 0.045155 -0.225092
C60   C     C_3   0.684306 0.525662 0.954845 -0.225092
C61   C     C_R   0.774525 0.121211 0.649441 0.532450
C62   C     C_R   0.225475 0.121211 0.350559 0.532450
C63   C     C_R   0.274525 0.621211 0.649441 0.532450
C64   C     C_R   0.725475 0.621211 0.350559 0.532450
C65   C     C_3   0.815451 0.020346 0.964992 -0.238269
C66   C     C_3   0.810324 0.130953 0.448407 -0.258507
C67   C     C_3   0.184549 0.020346 0.035008 -0.238269
C68   C     C_3   0.315451 0.520346 0.964992 -0.238269
C69   C     C_3   0.684549 0.520346 0.035008 -0.238269
C70   C     C_3   0.688695 0.016908 0.033100 -0.221555
C71   C     C_3   0.311305 0.016908 0.966900 -0.221555
C72   C     C_3   0.188695 0.516908 0.033100 -0.221555
C73   C     C_3   0.811305 0.516908 0.966900 -0.221555
C74   C     C_3   0.742896 0.203334 0.060441 -0.259475
C75   C     C_3   0.257103 0.203334 0.939558 -0.259475
C76   C     C_3   0.242896 0.703334 0.060441 -0.259474
C77   C     C_3   0.189676 0.130953 0.551593 -0.258508
C78   C     C_3   0.757104 0.703334 0.939558 -0.259475
C79   C     C_3   0.747083 0.071423 0.075211 0.039123
C80   C     C_3   0.252917 0.071423 0.924789 0.039123
C81   C     C_3   0.247083 0.571423 0.075211 0.039123
C82   C     C_3   0.752917 0.571423 0.924789 0.039123
C83   C     C_3   0.758713 0.102497 0.935598 0.049154
C84   C     C_3   0.241286 0.102497 0.064402 0.049154
C85   C     C_3   0.258713 0.602496 0.935598 0.049154
C86   C     C_3   0.741286 0.602496 0.064402 0.049154
C87   C     C_3   0.691854 0.040457 0.951123 -0.250930
C88   C     C_3   0.310324 0.630953 0.448407 -0.258507
C89   C     C_3   0.308146 0.040457 0.048877 -0.250930
C90   C     C_3   0.191853 0.540457 0.951123 -0.250930
C91   C     C_3   0.808146 0.540457 0.048877 -0.250930
C92   C     C_3   0.756005 0.219528 0.979150 -0.229582
C93   C     C_3   0.243995 0.219528 0.020850 -0.229582
C94   C     C_3   0.256005 0.719528 0.979150 -0.229582
C95   C     C_3   0.743995 0.719528 0.020850 -0.229582
C96   C     C_3   0.999619 0.476662 0.040511 -0.290106
C97   C     C_3   0.000381 0.476662 0.959488 -0.290106
C98   C     C_3   0.499619 0.976662 0.040511 -0.290106
C99   C     C_3   0.689676 0.630953 0.551593 -0.258507
C100  C     C_3   0.500381 0.976662 0.959488 -0.290106
C101  C     C_3   0.070143 0.290739 0.019020 -0.164993
C102  C     C_3   0.929857 0.290739 0.980980 -0.164993
C103  C     C_3   0.570143 0.790740 0.019020 -0.164993
C104  C     C_3   0.429857 0.790740 0.980980 -0.164993
C105  C     C_3   0.952482 0.271682 0.059159 0.104577
C106  C     C_3   0.047518 0.271682 0.940841 0.104577
C107  C     C_3   0.452482 0.771682 0.059159 0.104577
C108  C     C_3   0.547518 0.771682 0.940841 0.104577
C109  C     C_R   0.969388 0.342080 0.645094 0.537459
C110  C     C_3   0.746785 0.056737 0.436846 0.064970
C111  C     C_R   0.030612 0.342080 0.354906 0.537460
C112  C     C_R   0.469388 0.842080 0.645094 0.537459
C113  C     C_R   0.530612 0.842080 0.354906 0.537460
C114  C     C_3   0.014974 0.348648 0.068076 0.054042
C115  C     C_3   0.985025 0.348648 0.931924 0.054042
C116  C     C_3   0.514975 0.848648 0.068076 0.054042
C117  C     C_3   0.485025 0.848648 0.931924 0.054042
C118  C     C_R   0.760237 0.535195 0.848195 0.538035
C119  C     C_R   0.239763 0.535195 0.151805 0.538035
C120  C     C_R   0.260237 0.035195 0.848195 0.538035
Cl1   Cl    Cl    0.971732 0.118414 0.080154 -0.623727
Cl2   Cl    Cl    0.028268 0.118414 0.919846 -0.623727
Cl3   Cl    Cl    0.471732 0.618414 0.080154 -0.623727
Cl4   Cl    Cl    0.528268 0.618414 0.919846 -0.623727
Cr1   Cr    Cr6+3 0.885690 0.492860 0.745310 0.999969
Cr2   Cr    Cr6+3 0.111880 0.178590 0.246990 1.048031
Cr3   Cr    Cr6+3 0.388120 0.678590 0.753010 1.048031
Cr4   Cr    Cr6+3 0.611880 0.678590 0.246990 1.048031
Cr5   Cr    Cr6+3 0.114310 0.492860 0.254690 0.999969
Cr6   Cr    Cr6+3 0.385690 0.992860 0.745310 0.999969
Cr7   Cr    Cr6+3 0.614310 0.992860 0.254690 0.999969
Cr8   Cr    Cr6+3 0.729880 0.332270 0.748190 1.011721
Cr9   Cr    Cr6+3 0.270120 0.332270 0.251810 1.011722
Cr10  Cr    Cr6+3 0.229880 0.832270 0.748190 1.011721
Cr11  Cr    Cr6+3 0.770120 0.832270 0.251810 1.011722
Cr12  Cr    Cr6+3 0.888120 0.178590 0.753010 1.048031
H1    H     H_    0.638868 0.094637 0.452150 0.130249
H2    H     H_    0.191730 0.908441 0.531275 0.127357
H3    H     H_    0.465266 0.045869 0.941161 0.152630
H4    H     H_    0.949395 0.504686 0.060821 0.119925
H5    H     H_    0.050605 0.504686 0.939179 0.119925
H6    H     H_    0.449395 0.004686 0.060821 0.119925
H7    H     H_    0.550605 0.004686 0.939179 0.119925
H8    H     H_    0.608684 0.855646 0.014184 0.043337
H9    H     H_    0.391315 0.855646 0.985816 0.043337
H10   H     H_    0.108685 0.355646 0.014184 0.043337
H11   H     H_    0.891315 0.355646 0.985816 0.043337
H12   H     H_    0.588290 0.800641 0.903286 0.098654
H13   H     H_    0.308270 0.408441 0.468724 0.127357
H14   H     H_    0.411710 0.800641 0.096714 0.098654
H15   H     H_    0.088290 0.300641 0.903286 0.098654
H16   H     H_    0.911710 0.300640 0.096714 0.098654
H17   H     H_    0.909992 0.209243 0.957527 0.191387
H18   H     H_    0.090008 0.209243 0.042473 0.191387
H19   H     H_    0.409992 0.709243 0.957527 0.191387
H20   H     H_    0.590008 0.709243 0.042473 0.191387
H21   H     H_    0.649648 0.100490 0.573778 0.108364
H22   H     H_    0.350352 0.100490 0.426222 0.108364
H23   H     H_    0.149648 0.600490 0.573778 0.108364
H24   H     H_    0.691730 0.408441 0.531275 0.127357
H25   H     H_    0.850352 0.600491 0.426222 0.108364
H26   H     H_    0.721505 0.869133 0.464439 0.108662
H27   H     H_    0.278495 0.869133 0.535561 0.108662
H28   H     H_    0.221505 0.369133 0.464439 0.108662
H29   H     H_    0.778495 0.369133 0.535561 0.108662
H30   H     H_    0.706156 0.923566 0.585478 0.104989
H31   H     H_    0.293844 0.923566 0.414522 0.104989
H32   H     H_    0.206156 0.423566 0.585478 0.104989
H33   H     H_    0.793844 0.423566 0.414522 0.104989
H34   H     H_    0.854385 0.091118 0.420122 0.127289
H35   H     H_    0.796208 0.909803 0.588084 0.121733
H36   H     H_    0.145615 0.091118 0.579878 0.127289
H37   H     H_    0.354385 0.591118 0.420122 0.127289
H38   H     H_    0.645615 0.591118 0.579878 0.127289
H39   H     H_    0.803691 0.221599 0.427110 0.105228
H40   H     H_    0.196309 0.221599 0.572890 0.105228
H41   H     H_    0.303691 0.721599 0.427110 0.105228
H42   H     H_    0.696309 0.721599 0.572890 0.105228
H43   H     H_    0.841823 0.219489 0.546717 0.110079
H44   H     H_    0.158177 0.219489 0.453283 0.110079
H45   H     H_    0.341823 0.719489 0.546717 0.110079
H46   H     H_    0.203792 0.909802 0.411916 0.121733
H47   H     H_    0.658177 0.719489 0.453283 0.110079
H48   H     H_    0.296208 0.409803 0.588084 0.121733
H49   H     H_    0.703792 0.409803 0.411916 0.121733
H50   H     H_    0.046756 0.150272 0.442057 0.131545
H51   H     H_    0.953244 0.150272 0.557943 0.131545
H52   H     H_    0.546756 0.650272 0.442057 0.131545
H53   H     H_    0.361132 0.094637 0.547849 0.130249
H54   H     H_    0.453244 0.650272 0.557943 0.131545
H55   H     H_    0.959831 0.159942 0.434616 0.110056
H56   H     H_    0.040169 0.159942 0.565384 0.110056
H57   H     H_    0.459831 0.659942 0.434616 0.110056
H58   H     H_    0.540169 0.659942 0.565384 0.110056
H59   H     H_    0.615864 0.890747 0.454425 0.111030
H60   H     H_    0.384136 0.890747 0.545574 0.111030
H61   H     H_    0.115865 0.390747 0.454425 0.111030
H62   H     H_    0.884136 0.390747 0.545574 0.111030
H63   H     H_    0.599862 0.834604 0.575354 0.106028
H64   H     H_    0.138868 0.594637 0.452150 0.130249
H65   H     H_    0.400138 0.834604 0.424646 0.106028
H66   H     H_    0.099862 0.334604 0.575354 0.106028
H67   H     H_    0.900138 0.334604 0.424646 0.106028
H68   H     H_    0.938434 0.477609 0.418355 0.122863
H69   H     H_    0.061565 0.477609 0.581645 0.122863
H70   H     H_    0.438434 0.977609 0.418355 0.122863
H71   H     H_    0.561565 0.977609 0.581645 0.122863
H72   H     H_    0.947842 0.500096 0.536610 0.131206
H73   H     H_    0.052158 0.500096 0.463390 0.131206
H74   H     H_    0.447842 0.000096 0.536610 0.131206
H75   H     H_    0.861132 0.594637 0.547849 0.130249
H76   H     H_    0.552158 0.000096 0.463390 0.131206
H77   H     H_    0.834251 0.939455 0.064885 0.169064
H78   H     H_    0.165749 0.939455 0.935115 0.169064
H79   H     H_    0.334251 0.439455 0.064885 0.169064
H80   H     H_    0.665749 0.439455 0.935115 0.169064
H81   H     H_    0.687535 0.220467 0.440986 0.108492
H82   H     H_    0.312465 0.220467 0.559014 0.108492
H83   H     H_    0.187535 0.720467 0.440986 0.108492
H84   H     H_    0.812465 0.720467 0.559014 0.108492
H85   H     H_    0.852207 0.091388 0.062028 0.202690
H86   H     H_    0.863622 0.067868 0.538776 0.125611
H87   H     H_    0.147792 0.091388 0.937972 0.202690
H88   H     H_    0.352207 0.591388 0.062028 0.202690
H89   H     H_    0.647792 0.591388 0.937972 0.202690
H90   H     H_    0.867507 0.039839 0.946620 0.200387
H91   H     H_    0.132493 0.039839 0.053380 0.200387
H92   H     H_    0.367507 0.539839 0.946620 0.200387
H93   H     H_    0.632493 0.539839 0.053380 0.200387
H94   H     H_    0.806145 0.928714 0.947103 0.120595
H95   H     H_    0.193855 0.928714 0.052897 0.120595
H96   H     H_    0.306145 0.428714 0.947103 0.120595
H97   H     H_    0.136378 0.067868 0.461223 0.125611
H98   H     H_    0.693855 0.428714 0.052897 0.120595
H99   H     H_    0.695305 0.925356 0.045043 0.110212
H100  H     H_    0.304695 0.925356 0.954957 0.110212
H101  H     H_    0.195305 0.425356 0.045043 0.110212
H102  H     H_    0.804695 0.425356 0.954957 0.110212
H103  H     H_    0.687687 0.956332 0.920751 0.098721
H104  H     H_    0.312313 0.956332 0.079248 0.098721
H105  H     H_    0.187687 0.456332 0.920751 0.098721
H106  H     H_    0.812313 0.456332 0.079248 0.098721
H107  H     H_    0.691841 0.236592 0.075627 0.133000
H108  H     H_    0.363622 0.567868 0.538776 0.125611
H109  H     H_    0.308159 0.236592 0.924373 0.133000
H110  H     H_    0.191841 0.736592 0.075627 0.133000
H111  H     H_    0.808159 0.736592 0.924373 0.133000
H112  H     H_    0.780847 0.252676 0.092289 0.103748
H113  H     H_    0.219153 0.252676 0.907711 0.103748
H114  H     H_    0.280847 0.752676 0.092289 0.103748
H115  H     H_    0.719153 0.752676 0.907711 0.103748
H116  H     H_    0.805852 0.253474 0.973576 0.098011
H117  H     H_    0.194147 0.253474 0.026423 0.098011
H118  H     H_    0.305853 0.753474 0.973576 0.098011
H119  H     H_    0.636378 0.567868 0.461223 0.125611
H120  H     H_    0.694147 0.753474 0.026423 0.098011
H121  H     H_    0.718450 0.280363 0.956521 0.134399
H122  H     H_    0.281550 0.280363 0.043479 0.134398
H123  H     H_    0.218450 0.780363 0.956521 0.134399
H124  H     H_    0.781550 0.780363 0.043479 0.134398
H125  H     H_    0.640027 0.048048 0.054740 0.135666
H126  H     H_    0.359972 0.048047 0.945260 0.135666
H127  H     H_    0.140027 0.548047 0.054740 0.135666
H128  H     H_    0.859972 0.548047 0.945260 0.135666
H129  H     H_    0.687687 0.237017 0.563071 0.139270
H130  H     H_    0.808270 0.908441 0.468724 0.127357
H131  H     H_    0.312313 0.237017 0.436929 0.139270
H132  H     H_    0.187687 0.737016 0.563071 0.139270
H133  H     H_    0.812313 0.737017 0.436929 0.139270
H134  H     H_    0.649585 0.099201 0.934956 0.128325
H135  H     H_    0.350415 0.099202 0.065044 0.128325
H136  H     H_    0.149585 0.599201 0.934956 0.128325
H137  H     H_    0.850415 0.599202 0.065044 0.128325
H138  H     H_    0.034734 0.545869 0.058839 0.152630
H139  H     H_    0.965266 0.545869 0.941161 0.152630
H140  H     H_    0.534733 0.045869 0.058839 0.152630
O1    O     O_R   0.957210 0.449410 0.665480 -0.532613
O2    O     O_R   0.167480 0.095300 0.164000 -0.518164
O3    O     O_R   0.332520 0.595300 0.836000 -0.518164
O4    O     O_R   0.667480 0.595300 0.164000 -0.518164
O5    O     O_R   0.946380 0.253940 0.826940 -0.447397
O6    O     O_R   0.053620 0.253940 0.173060 -0.447397
O7    O     O_R   0.446380 0.753940 0.826940 -0.447397
O8    O     O_R   0.553620 0.753940 0.173060 -0.447397
O9    O     O_3   0.834560 0.334570 0.748840 -0.290123
O10   O     O_3   0.165440 0.334570 0.251160 -0.290124
O11   O     O_3   0.334560 0.834570 0.748840 -0.290123
O12   O     O_R   0.042790 0.449410 0.334520 -0.532612
O13   O     O_3   0.665440 0.834570 0.251160 -0.290124
O14   O     O_R   0.820730 0.541240 0.668250 -0.515598
O15   O     O_R   0.179270 0.541240 0.331750 -0.515598
O16   O     O_R   0.320730 0.041240 0.668250 -0.515598
O17   O     O_R   0.679270 0.041240 0.331750 -0.515598
O18   O     O_R   0.714240 0.455060 0.663710 -0.527766
O19   O     O_R   0.285760 0.455060 0.336290 -0.527766
O20   O     O_R   0.214240 0.955060 0.663710 -0.527766
O21   O     O_R   0.785760 0.955060 0.336290 -0.527766
O22   O     O_R   0.736780 0.204870 0.675910 -0.516797
O23   O     O_R   0.457210 0.949410 0.665480 -0.532613
O24   O     O_R   0.263220 0.204870 0.324090 -0.516796
O25   O     O_R   0.236780 0.704870 0.675910 -0.516797
O26   O     O_R   0.763220 0.704870 0.324090 -0.516796
O27   O     O_R   0.833070 0.087590 0.673490 -0.528909
O28   O     O_R   0.166930 0.087590 0.326510 -0.528910
O29   O     O_R   0.333070 0.587590 0.673490 -0.528909
O30   O     O_R   0.666930 0.587590 0.326510 -0.528910
O31   O     O_R   0.946890 0.246800 0.676300 -0.507827
O32   O     O_R   0.053110 0.246800 0.323700 -0.507827
O33   O     O_R   0.446890 0.746800 0.676300 -0.507827
O34   O     O_R   0.542790 0.949410 0.334520 -0.532612
O35   O     O_R   0.553110 0.746800 0.323700 -0.507827
O36   O     O_R   0.956650 0.457120 0.827980 -0.540945
O37   O     O_R   0.043350 0.457120 0.172020 -0.540944
O38   O     O_R   0.456650 0.957120 0.827980 -0.540945
O39   O     O_R   0.543350 0.957120 0.172020 -0.540944
O40   O     O_R   0.820220 0.548390 0.818890 -0.512911
O41   O     O_R   0.179780 0.548390 0.181110 -0.512911
O42   O     O_R   0.320220 0.048390 0.818890 -0.512911
O43   O     O_R   0.679780 0.048390 0.181110 -0.512911
O44   O     O_R   0.713680 0.462770 0.826210 -0.513303
O45   O     O_R   0.736260 0.212010 0.826560 -0.509262
O46   O     O_R   0.286320 0.462770 0.173790 -0.513302
O47   O     O_R   0.213680 0.962770 0.826210 -0.513303
O48   O     O_R   0.786320 0.962770 0.173790 -0.513302
O49   O     O_R   0.263740 0.212010 0.173440 -0.509262
O50   O     O_R   0.236260 0.712010 0.826560 -0.509262
O51   O     O_R   0.763740 0.712010 0.173440 -0.509262
O52   O     O_R   0.832520 0.095300 0.836000 -0.518164

loop_
_geom_bond_atom_site_label_1
_geom_bond_atom_site_label_2
_ccdc_geom_bond_type
C70   H125  S    
C73   C82   S    
C76   H114  S    
C21   C110  S    
C88   H41   S    
C40   H51   S    
C57   H85   S    
Cr2   O2    S    
C48   H67   S    
C6    C85   S    
C65   H94   S    
C9    C114  S    
C94   H118  S    
C59   H79   S    
C45   C48   S    
Cr12  O9    S    
Cr7   O17   S    
C74   C92   S    
C41   H57   S    
C76   C94   S    
C107  H14   S    
C2    C22   S    
C3    O43   A    
C97   C115  S    
C64   O30   A    
C73   H128  S    
C25   C34   S    
C23   H13   S    
C29   C64   S    
C67   H95   S    
C37   H108  S    
C96   C114  S    
C11   O8    A    
C108  Cl4   S    
Cr3   O33   S    
C85   C90   S    
Cr1   O9    S    
C112  O23   A    
Cr4   O30   S    
C27   C31   S    
Cr3   O11   S    
C28   C32   S    
C38   C99   S    
C35   C66   S    
Cr11  O48   S    
C118  O44   A    
C119  O41   A    
C13   C33   S    
C39   H55   S    
C78   C82   S    
C40   H56   S    
C16   C20   S    
C119  O46   A    
C37   H45   S    
C43   H61   S    
C66   C110  S    
Cr11  O13   S    
C102  H17   S    
C30   H30   S    
C33   O19   A    
C98   H140  S    
C1    O18   A    
C31   H31   S    
C74   C79   S    
C32   H32   S    
C82   C118  S    
C75   C93   S    
C104  C117  S    
C53   C109  S    
C72   H127  S    
C5    O49   A    
C70   C79   S    
C58   H87   S    
C68   H92   S    
C81   C119  S    
C61   O27   A    
C106  C115  S    
C36   C77   S    
C103  C116  S    
C36   H97   S    
C99   H38   S    
C49   C53   S    
C84   C93   S    
C2    C14   S    
Cr10  O20   S    
C86   C95   S    
C38   H47   S    
C28   C63   S    
C103  H20   S    
C48   C52   S    
Cr9   O10   S    
C44   O20   A    
C72   H101  S    
C14   H82   S    
C100  C117  S    
C20   H133  S    
C104  C107  S    
Cr9   O46   S    
C108  H12   S    
C112  O33   A    
C96   H138  S    
C12   C110  S    
C92   H121  S    
Cr12  O27   S    
C113  O35   A    
Cr8   O22   S    
C100  H3    S    
C51   H71   S    
C43   C52   S    
C7    C86   S    
C4    O52   A    
C72   C90   S    
C13   C23   S    
C6    O50   A    
C3    O48   A    
C2    C44   S    
C29   C38   S    
C1    O14   A    
C111  O12   A    
C17   H21   S    
C70   H99   S    
C71   H126  S    
C45   C53   S    
C98   H6    S    
C68   C85   S    
C14   H53   S    
C89   H104  S    
C8    O36   A    
C43   H73   S    
C70   C87   S    
C47   C50   S    
C9    O37   A    
C92   H116  S    
C35   H43   S    
C95   H124  S    
C87   H103  S    
Cr7   O13   S    
C99   H42   S    
C59   H88   S    
C39   C40   S    
C5    C84   S    
Cr9   O49   S    
C46   C51   S    
C27   C62   S    
C69   H93   S    
C102  H11   S    
C74   H112  S    
C58   C67   S    
Cr8   O9    S    
C67   H91   S    
C106  Cl2   S    
C19   C28   S    
C34   H33   S    
C21   H130  S    
C50   H70   S    
C57   H77   S    
C26   C30   S    
C45   H72   S    
Cr2   O10   S    
C7    O51   A    
C4    O45   A    
Cr4   O8    S    
C15   H83   S    
Cr11  O26   S    
C23   H28   S    
C101  C106  S    
C118  O40   A    
C21   H26   S    
C108  C117  S    
C16   H75   S    
C5    O2    A    
C96   H4    S    
C109  O1    A    
Cr5   O37   S    
C77   H40   S    
C109  O31   A    
C62   O28   A    
C60   H80   S    
C73   H102  S    
C10   C117  S    
C15   H64   S    
C60   C69   S    
Cr10  O47   S    
Cr9   O24   S    
C9    O6    A    
C16   H84   S    
C104  H19   S    
C107  C116  S    
C55   O17   A    
Cr2   O28   S    
C1    C24   S    
Cr3   O3    S    
C95   H120  S    
Cr4   O4    S    
C68   H96   S    
C47   C56   S    
C83   C87   S    
Cr6   O38   S    
C78   H115  S    
Cr7   O43   S    
C41   C42   S    
Cr8   O44   S    
C37   C88   S    
C36   H44   S    
C107  Cl3   S    
C15   C19   S    
C50   C54   S    
Cr4   O35   S    
C26   C61   S    
C86   C91   S    
Cr11  O21   S    
C87   H134  S    
C18   H131  S    
C93   H117  S    
C102  C105  S    
C57   C79   S    
C102  C115  S    
C42   C56   S    
C39   H50   S    
C55   O21   A    
C12   C17   S    
Cr10  O25   S    
C72   C81   S    
C58   C80   S    
C38   H119  S    
C101  C114  S    
Cr1   O40   S    
C6    O3    A    
C32   H48   S    
Cr8   O45   S    
C90   H136  S    
C64   O26   A    
C47   H60   S    
C35   H86   S    
C25   H29   S    
C29   C34   S    
C41   H52   S    
C10   O7    A    
C34   H49   S    
Cr2   O32   S    
C18   H22   S    
C91   H106  S    
C78   C95   S    
C46   C54   S    
C25   H24   S    
Cr10  O11   S    
C11   C116  S    
C97   H5    S    
C3    C79   S    
C74   H107  S    
C10   O38   A    
C49   H69   S    
C98   C100  S    
C31   H46   S    
C66   H39   S    
Cr12  O52   S    
C7    O4    A    
C12   H81   S    
C50   H65   S    
C105  H16   S    
C48   H68   S    
C106  H15   S    
C59   C81   S    
C57   C65   S    
Cr6   O11   S    
C100  H7    S    
C27   C36   S    
C21   C30   S    
C22   H2    S    
C113  O34   A    
Cr6   O23   S    
C19   H23   S    
C23   C32   S    
C2    C77   S    
C4    C83   S    
Cr1   O1    S    
C77   H36   S    
Cr2   O6    S    
C65   H90   S    
C93   H122  S    
Cr6   O16   S    
Cr10  O50   S    
C75   H113  S    
Cr5   O41   S    
C80   C120  S    
C22   H27   S    
C24   C99   S    
C62   O24   A    
C14   C18   S    
C63   O29   A    
C103  H8    S    
C46   H59   S    
C83   C92   S    
C17   C26   S    
C28   C37   S    
Cr5   O10   S    
C51   C56   S    
C46   H76   S    
C65   C83   S    
C120  O47   A    
Cr3   O29   S    
C54   C113  S    
C60   H89   S    
Cr3   O7    S    
C42   H58   S    
C42   H54   S    
C17   H129  S    
C8    C115  S    
C60   C82   S    
Cr6   O42   S    
Cr7   O39   S    
C103  C108  S    
C120  O42   A    
C75   C80   S    
Cr1   O14   S    
C75   H109  S    
C39   C52   S    
C67   C84   S    
C16   C24   S    
C71   C80   S    
C33   O15   A    
C20   C29   S    
Cr11  O51   S    
C111  O32   A    
C41   C54   S    
Cr7   O34   S    
C101  H10   S    
C22   C31   S    
C105  C114  S    
C91   H137  S    
C24   C25   S    
C73   C91   S    
C43   C49   S    
C52   C111  S    
C45   H62   S    
C88   H37   S    
C69   H98   S    
Cr12  O5    S    
C59   C68   S    
C97   H139  S    
C85   C94   S    
C98   C116  S    
C94   H123  S    
C71   C89   S    
C96   C97   S    
C78   H111  S    
C105  Cl1   S    
C71   H100  S    
Cr1   O36   S    
C51   H63   S    
Cr4   O13   S    
C63   O25   A    
C13   C15   S    
C55   C110  S    
C47   H74   S    
C84   C89   S    
C58   H78   S    
C49   H66   S    
C61   O22   A    
C44   O16   A    
C89   H135  S    
C104  H9    S    
C66   H34   S    
Cr5   O12   S    
C76   H110  S    
C18   C27   S    
C101  H18   S    
C76   C81   S    
C8    O5    A    
Cr12  O31   S    
C11   O39   A    
C20   H25   S    
C13   C88   S    
Cr8   O18   S    
C26   C35   S    
Cr9   O19   S    
C30   H35   S    
Cr5   O15   S    
C40   C53   S    
C90   H105  S    
C12   H1    S    
C56   C112  S    
C69   C86   S    
C19   H132  S    
