data_str_m2_o10_o18_f0_pcu.sym.154
_audit_creation_date              2012-12-10T16:45:22-0500
_audit_creation_method            fapswitch 2.2
_symmetry_space_group_name_H-M    P1
_symmetry_Int_Tables_number       1
_space_group_crystal_system       triclinic
_cell_length_a                    7.433101
_cell_length_b                    8.776076
_cell_length_c                    15.801395
_cell_angle_alpha                 93.480376
_cell_angle_beta                  74.922015
_cell_angle_gamma                 101.842236
_cell_volume                      974.079972038

loop_
_atom_site_label
_atom_site_type_symbol
_atom_type_description
_atom_site_fract_x
_atom_site_fract_y
_atom_site_fract_z
_atom_type_partial_charge
C1    C     C_R   0.543968 0.798744 0.500128 0.867314
C2    C     C_R   0.456025 0.201270 0.499866 0.871919
C3    C     C_R   0.273141 0.413189 0.081899 -0.040256
C4    C     C_R   0.726926 0.586282 0.918022 -0.038904
C5    C     C_R   0.154244 0.358166 0.027322 -0.241032
C6    C     C_R   0.845889 0.641184 0.972580 -0.241847
C7    C     C_2   0.572121 0.961510 0.484158 0.077969
C8    C     C_2   0.427847 0.038512 0.515772 0.098593
C9    C     C_R   0.383630 0.488361 0.666269 0.837073
C10   C     C_R   0.616377 0.511601 0.333724 0.834272
C11   C     C_R   0.311675 0.466277 0.761289 -0.034313
C12   C     C_R   0.688359 0.533478 0.238679 -0.038841
C13   C     C_R   0.085775 0.334229 0.886062 -0.191136
C14   C     C_R   0.914451 0.665073 0.113808 -0.181868
C15   C     C_R   0.137803 0.368893 0.797239 -0.128061
C16   C     C_R   0.862412 0.630570 0.202648 -0.112985
C17   C     C_R   0.430001 0.530273 0.815342 -0.229826
C18   C     C_R   0.569976 0.469469 0.184653 -0.229862
C19   C     C_R   0.395047 0.478589 0.901899 0.075467
C20   C     C_R   0.605009 0.520961 0.098047 0.075816
C21   C     C_R   0.213033 0.387762 0.938314 0.132046
C22   C     C_R   0.787104 0.611631 0.061591 0.128533
C23   C     C_R   0.530944 0.517400 0.953899 -0.000082
C24   C     C_R   0.469118 0.482118 0.046039 0.000223
Cu1   Cu    Cu3+1 0.322120 0.483240 0.490330 1.087025
Cu2   Cu    Cu3+1 0.677880 0.516760 0.509670 1.072559
H1    H     H_    0.008855 0.299366 0.055567 0.162348
H2    H     H_    0.991307 0.699903 0.944319 0.160742
H3    H     H_    0.455322 0.375654 0.211767 0.168455
H4    H     H_    0.544580 0.624199 0.788293 0.164442
H5    H     H_    0.958847 0.678163 0.242659 0.186649
H6    H     H_    0.041528 0.321224 0.757167 0.187085
H7    H     H_    0.946881 0.263792 0.913732 0.145790
H8    H     H_    0.053440 0.735325 0.086092 0.147824
H9    H     H_    0.993863 0.596257 0.575720 0.287726
H10   H     H_    0.006029 0.403547 0.424351 0.286615
N1    N     N_2   0.945180 0.542040 0.524240 -0.189184
N2    N     N_2   0.054820 0.457960 0.475760 -0.182680
O1    O     O_R   0.384450 0.714270 0.493720 -0.562124
O2    O     O_R   0.615550 0.285730 0.506280 -0.563030
O3    O     O_R   0.684880 0.742590 0.510050 -0.535282
O4    O     O_R   0.315120 0.257410 0.489950 -0.511316
O5    O     O_R   0.265540 0.477900 0.617090 -0.562038
O6    O     O_R   0.734460 0.522100 0.382910 -0.574794
O7    O     O_R   0.565970 0.506210 0.633420 -0.589649
O8    O     O_R   0.434030 0.493790 0.366580 -0.590878
C25   C     C_1   0.178017 0.407917 0.174108 0.240941
N3    N     N_1   0.100674 0.402840 0.247887 -0.239350
C26   C     C_1   0.821995 0.591639 0.825803 0.231814
N4    N     N_1   0.899317 0.596803 0.752022 -0.243321
S1    S     S_3+6 0.792849 0.041692 0.410296 0.014488
O9    O     O_2   0.768384 0.156728 0.349494 -0.303646
O10   O     O_2   0.927215 0.121186 0.463031 -0.254936
O11   O     O_3   0.885685 0.899247 0.349411 -0.547465
H11   H     H_    0.997655 0.890121 0.370261 0.383263
S2    S     S_3+6 0.206686 0.958081 0.589216 0.002752
O12   O     O_2   0.074064 0.877326 0.536060 -0.273826
O13   O     O_2   0.231848 0.844980 0.650950 -0.328883
O14   O     O_3   0.110998 0.100642 0.648267 -0.539367
H12   H     H_    0.981396 0.049124 0.680010 0.371045

loop_
_geom_bond_atom_site_label_1
_geom_bond_atom_site_label_2
_ccdc_geom_bond_type
Cu1   O4    S    
C14   H8    S    
C19   C23   A    
C23   C24   A    
Cu2   N1    S    
C13   H7    S    
N1    N2    D    
C6    H2    S    
Cu1   N2    S    
C7    S1    S    
C25   N3    T    
S2    O14   S    
C4    C26   S    
C3    C5    A    
S1    O11   S    
Cu1   O5    S    
C11   C15   A    
H10   N2    S    
C13   C21   A    
C7    C8    D    
C18   H3    S    
C1    C7    S    
Cu1   O1    S    
C16   H5    S    
C9    O7    A    
C17   H4    S    
C9    C11   S    
Cu2   O2    S    
C3    C24   A    
C10   C12   S    
C2    O4    A    
C3    C25   S    
C19   C21   A    
S2    O13   D    
C18   C20   A    
C13   C15   A    
C14   C22   A    
C20   C24   A    
C14   C16   A    
C9    O5    A    
C1    O1    A    
Cu2   O6    S    
S1    O9    D    
C6    C22   A    
C2    O2    A    
C10   O8    A    
O14   H12   S    
C5    C21   A    
S2    O12   D    
C4    C6    A    
C26   N4    T    
C1    O3    A    
C4    C23   A    
C8    S2    S    
O11   H11   S    
C17   C19   A    
C2    C8    S    
Cu2   O7    S    
H9    N1    S    
Cu1   Cu2   S    
C5    H1    S    
C10   O6    A    
Cu1   O8    S    
C11   C17   A    
C12   C18   A    
C12   C16   A    
Cu2   O3    S    
C20   C22   A    
S1    O10   D    
C15   H6    S    
