data_str_m9_o4_o24_f0_sra.sym.100
_audit_creation_date              2012-12-11T17:06:25-0500
_audit_creation_method            fapswitch 2.2
_symmetry_space_group_name_H-M    P1
_symmetry_Int_Tables_number       1
_space_group_crystal_system       triclinic
_cell_length_a                    7.462939
_cell_length_b                    14.5651
_cell_length_c                    16.842806
_cell_angle_alpha                 88.688119
_cell_angle_beta                  85.192273
_cell_angle_gamma                 90.983567
_cell_volume                      1823.53255951

loop_
_atom_site_label
_atom_site_type_symbol
_atom_type_description
_atom_site_fract_x
_atom_site_fract_y
_atom_site_fract_z
_atom_type_partial_charge
O1    O     O_R   0.494400 0.415450 0.412630 -0.495985
O2    O     O_R   0.823940 0.405730 0.586760 -0.553322
O3    O     O_R   0.994240 0.584550 0.587370 -0.527653
C1    C     C_R   0.652145 0.394254 0.621591 0.701829
O4    O     O_R   0.824110 0.404430 0.413240 -0.577767
O5    O     O_R   0.994420 0.583240 0.412620 -0.526078
C2    C     C_R   0.659666 0.383138 0.384448 0.718808
O6    O     O_R   0.494230 0.416760 0.587380 -0.549596
O7    O     O_3   0.660800 0.558670 0.500000 -0.397944
V1    V     V_3+5 0.935650 0.489120 0.500000 1.345531
O8    O     O_R   0.324140 0.594270 0.413240 -0.554477
C3    C     C_R   0.162941 0.611673 0.382175 0.709210
O9    O     O_R   0.323960 0.595570 0.586760 -0.549737
C4    C     C_R   0.153605 0.618060 0.614292 0.670263
V2    V     V_3+5 0.435660 0.510880 0.500000 1.375961
O10   O     O_3   0.160640 0.441330 0.500000 -0.427592
C5    C     C_3   0.999428 0.690249 0.755533 0.424240
C6    C     C_3   0.142726 0.706265 0.816336 -0.256678
H1    H     H_    0.149514 0.667243 0.873432 0.142606
C7    C     C_3   0.118464 0.812362 0.807709 -0.167202
C8    C     C_3   0.975992 0.795616 0.745025 0.396075
C9    C     C_3   0.127267 0.796222 0.676771 0.110646
C10   C     C_3   0.268097 0.814734 0.737821 -0.112625
C11   C     C_3   0.291982 0.709185 0.745247 -0.200273
C12   C     C_3   0.146697 0.690446 0.684413 -0.123553
H2    H     H_    0.364275 0.873923 0.736118 0.138289
H3    H     H_    0.425242 0.676557 0.742173 0.130231
C13   C     C_R   0.288977 0.788395 0.206887 0.017633
C14   C     C_R   0.119832 0.813432 0.179363 -0.140901
C15   C     C_R   0.971002 0.757763 0.211787 -0.126029
H4    H     H_    0.844758 0.760389 0.182859 0.148682
C16   C     C_R   0.996131 0.688337 0.271934 0.260604
C17   C     C_R   0.162973 0.673266 0.306838 -0.185521
C18   C     C_R   0.315196 0.722553 0.265613 -0.010965
C19   C     C_3   0.518161 0.736872 0.244310 0.261718
C20   C     C_3   0.476920 0.823261 0.194819 -0.311656
H5    H     H_    0.579667 0.688628 0.196769 0.025518
H6    H     H_    0.547744 0.826987 0.131836 0.150157
H7    H     H_    0.484087 0.890435 0.228592 0.174875
C21   C     C_R   0.491771 0.305200 0.748639 -0.143588
C22   C     C_R   0.644859 0.343963 0.705416 -0.265702
C23   C     C_R   0.797267 0.337994 0.757369 0.524286
C24   C     C_R   0.809217 0.261068 0.813823 0.131283
C25   C     C_R   0.643161 0.204137 0.835731 -0.212873
C26   C     C_R   0.496293 0.247310 0.813098 -0.097906
C27   C     C_3   0.312704 0.253607 0.848348 0.133315
C28   C     C_3   0.297616 0.315688 0.774907 0.514425
H8    H     H_    0.266714 0.176003 0.844236 0.099595
H9    H     H_    0.228104 0.268738 0.736067 0.001887
C29   C     C_R   0.504410 0.296529 0.273707 0.054167
C30   C     C_R   0.656226 0.316196 0.312590 -0.151764
C31   C     C_R   0.799861 0.268901 0.273222 -0.238132
H10   H     H_    0.933967 0.272961 0.283450 0.179228
C32   C     C_R   0.794346 0.205224 0.210682 0.433542
C33   C     C_R   0.629567 0.184747 0.174710 -0.186391
C34   C     C_R   0.491380 0.240184 0.208081 -0.134273
C35   C     C_3   0.296375 0.254870 0.213339 0.315432
C36   C     C_3   0.314999 0.312553 0.288769 0.465349
H11   H     H_    0.233290 0.188618 0.234911 0.124387
O11   O     O_R   0.771650 0.079500 0.908680 -0.540673
O12   O     O_R   0.441690 0.091800 0.082800 -0.549123
O13   O     O_R   0.271460 0.912980 0.083410 -0.536367
C37   C     C_R   0.609600 0.114434 0.108969 0.664710
O14   O     O_R   0.441930 0.090510 0.909280 -0.543124
O15   O     O_R   0.271690 0.911670 0.908660 -0.529476
C38   C     C_R   0.617293 0.117762 0.887918 0.719858
O16   O     O_R   0.771410 0.080810 0.083440 -0.571237
O17   O     O_3   0.605100 0.937580 0.996050 -0.379911
V3    V     V_3+5 0.330220 0.007110 0.996030 1.366038
O18   O     O_R   0.941980 0.900620 0.909250 -0.517733
C39   C     C_R   0.112152 0.880465 0.880364 0.703298
O19   O     O_R   0.941740 0.901920 0.082770 -0.553838
C40   C     C_R   0.106803 0.881693 0.111018 0.652692
V4    V     V_3+5 0.830220 0.985300 0.996000 1.376611
O20   O     O_3   0.105210 0.054870 0.996020 -0.433773
O21   O     O_3   0.633465 0.768791 0.303133 -0.559532
C41   C     C_3   0.633984 0.715629 0.375946 -0.125347
H12   H     H_    0.779213 0.709025 0.389072 0.175267
H13   H     H_    0.586660 0.643896 0.370767 0.165560
H14   H     H_    0.548937 0.749727 0.424861 0.143519
O22   O     O_3   0.939315 0.397336 0.743477 -0.531039
C42   C     C_3   0.034199 0.350496 0.674162 -0.065447
H15   H     H_    0.044799 0.428819 0.657813 0.231399
H16   H     H_    0.961402 0.290379 0.645050 0.081961
H17   H     H_    0.162189 0.365692 0.635314 0.040830
N1    N     N_3   0.980422 0.234866 0.837666 -0.623709
H18   H     H_    0.953772 0.237436 0.905532 0.227053
H19   H     H_    0.002041 0.164795 0.814593 0.206838
N2    N     N_3   0.296098 0.298568 0.929522 -0.555906
H20   H     H_    0.180263 0.267857 0.968126 0.224002
H21   H     H_    0.413594 0.288232 0.966934 0.220176
O23   O     O_3   0.250343 0.407078 0.798421 -0.494056
C43   C     C_3   0.332945 0.478556 0.745359 -0.090551
H22   H     H_    0.302791 0.471759 0.683283 0.125101
H23   H     H_    0.483361 0.484981 0.744393 0.106205
H24   H     H_    0.275093 0.544299 0.766473 0.151693
O24   O     O_3   0.865007 0.620011 0.766096 -0.538608
C44   C     C_3   0.733071 0.644232 0.827329 -0.197853
H25   H     H_    0.656334 0.705297 0.808540 0.165051
H26   H     H_    0.792611 0.659922 0.885259 0.127729
H27   H     H_    0.636839 0.584864 0.838520 0.155632
O25   O     O_3   0.972052 0.185371 0.185856 -0.600159
C45   C     C_3   0.023797 0.114203 0.140365 -0.006570
H28   H     H_    0.010425 0.150033 0.081285 0.218340
H29   H     H_    0.966658 0.046582 0.166946 0.120545
H30   H     H_    0.166221 0.103225 0.143329 0.138995
O26   O     O_3   0.233682 0.288868 0.140143 -0.536819
C46   C     C_3   0.272137 0.381523 0.119386 -0.240563
H31   H     H_    0.419116 0.399016 0.116267 0.131018
H32   H     H_    0.186141 0.428492 0.156249 0.133247
H33   H     H_    0.227708 0.392356 0.059038 0.187524
O27   O     O_3   0.261528 0.261067 0.361089 -0.575618
C47   C     C_3   0.102097 0.293777 0.399553 -0.016181
H34   H     H_    0.037099 0.333935 0.360595 0.042022
H35   H     H_    0.119871 0.359344 0.412606 0.222219
H36   H     H_    0.023913 0.247375 0.443645 0.102783
N3    N     N_3   0.286950 0.413543 0.289399 -0.667105
H37   H     H_    0.379938 0.449715 0.249131 0.193613
H38   H     H_    0.156027 0.433083 0.280522 0.187921
O28   O     O_3   0.808741 0.839554 0.740788 -0.552548
C48   C     C_3   0.734604 0.814098 0.668768 -0.254344
H39   H     H_    0.727450 0.736913 0.661554 0.157905
H40   H     H_    0.811363 0.848807 0.616759 0.136515
H41   H     H_    0.595803 0.840699 0.666526 0.165517
N4    N     N_3   0.159270 0.848761 0.600469 -0.662190
H42   H     H_    0.119939 0.916845 0.610093 0.237810
H43   H     H_    0.073355 0.818713 0.559192 0.210224
N5    N     N_3   0.869340 0.609322 0.279104 -0.679268
H44   H     H_    0.929592 0.543413 0.271367 0.225326
H45   H     H_    0.729232 0.623080 0.269874 0.232335

loop_
_geom_bond_atom_site_label_1
_geom_bond_atom_site_label_2
_ccdc_geom_bond_type
C21   C28   S    
C33   C34   A    
C43   H22   S    
C28   O23   S    
C25   C38   S    
C19   C20   S    
C11   H3    S    
C1    O6    A    
N5    H44   S    
O24   C44   S    
C28   H9    S    
C27   N2    S    
C41   H12   S    
C34   C35   S    
C42   H17   S    
C6    C11   S    
C13   C14   A    
C19   H5    S    
C18   C19   S    
C8    O28   S    
N3    H38   S    
O5    C3    A    
C15   H4    S    
N1    H19   S    
C35   H11   S    
C14   C40   S    
C1    C22   S    
O17   V4    S    
V2    O10   S    
C46   H31   S    
C6    H1    S    
C22   C23   A    
C10   H2    S    
O12   C37   A    
C48   H41   S    
C32   C33   A    
O8    V2    S    
C45   H29   S    
O17   V3    S    
C9    C12   S    
C33   C37   S    
O18   V4    S    
O26   C46   S    
C7    C39   S    
O18   C39   A    
O1    V2    S    
N2    H21   S    
O7    V1    S    
C47   H36   S    
C13   C18   A    
C43   H23   S    
C8    C9    S    
C23   O22   S    
O27   C47   S    
C31   C32   A    
C17   C18   A    
C27   H8    S    
C41   H13   S    
C21   C26   A    
C37   O16   A    
C19   O21   S    
V4    O20   S    
C30   C31   A    
C29   C36   S    
C11   C12   S    
O19   V4    S    
O4    C2    A    
N1    H18   S    
C9    N4    S    
O22   C42   S    
C29   C30   A    
O15   C39   A    
C36   N3    S    
C5    C8    S    
O13   V3    S    
O14   C38   A    
O2    C1    A    
C24   C25   A    
C14   C15   A    
C7    C10   S    
C10   C11   S    
C5    C6    S    
O13   C40   A    
O16   V4    S    
O14   V3    S    
O21   C41   S    
C48   H39   S    
O3    C4    A    
C21   C22   A    
C35   O26   S    
C42   H15   S    
O6    V2    S    
C42   H16   S    
O9    V2    S    
N4    H42   S    
C36   O27   S    
C23   C24   A    
O2    V1    S    
O28   C48   S    
C47   H34   S    
C41   H14   S    
O12   V3    S    
C27   C28   S    
O1    C2    A    
C24   N1    S    
C32   O25   S    
C20   H7    S    
C25   C26   A    
O19   C40   A    
N5    H45   S    
O5    V1    S    
O8    C3    A    
C43   H24   S    
C44   H27   S    
C44   H26   S    
C46   H33   S    
C5    C12   S    
C16   C17   A    
C16   N5    S    
C20   H6    S    
O7    V2    S    
C2    C30   S    
O4    V1    S    
O3    V1    S    
V1    O10   S    
N3    H37   S    
C15   C16   A    
C35   C36   S    
C3    C17   S    
O15   V3    S    
O11   V4    S    
O23   C43   S    
C46   H32   S    
V3    O20   S    
C45   H30   S    
C6    C7    S    
C4    C12   S    
O25   C45   S    
C29   C34   A    
C48   H40   S    
O11   C38   A    
C26   C27   S    
C7    C8    S    
C13   C20   S    
C44   H25   S    
C45   H28   S    
N4    H43   S    
C9    C10   S    
N2    H20   S    
O9    C4    A    
C5    O24   S    
C31   H10   S    
C47   H35   S    
