data_str_m4_o15_o24_f0_acs.sym.134
_audit_creation_date              2012-12-11T14:28:18-0500
_audit_creation_method            fapswitch 2.2
_symmetry_space_group_name_H-M    P1
_symmetry_Int_Tables_number       1
_space_group_crystal_system       triclinic
_cell_length_a                    11.048217
_cell_length_b                    19.108559
_cell_length_c                    18.774273
_cell_angle_alpha                 90.183476
_cell_angle_beta                  90.090858
_cell_angle_gamma                 90.272226
_cell_volume                      3963.47001311

loop_
_atom_site_label
_atom_site_type_symbol
_atom_type_description
_atom_site_fract_x
_atom_site_fract_y
_atom_site_fract_z
_atom_type_partial_charge
C1    C     C_R   0.318009 0.965369 0.645529 0.537841
C2    C     C_R   0.318232 0.963838 0.855358 0.545685
C3    C     C_R   0.317984 0.038503 0.356741 0.540816
C4    C     C_R   0.318107 0.037321 0.144007 0.542110
C5    C     C_R   0.818009 0.465369 0.645529 0.538519
C6    C     C_R   0.818496 0.463692 0.855497 0.538882
C7    C     C_R   0.817984 0.538503 0.356741 0.540818
C8    C     C_R   0.818221 0.536718 0.144315 0.546377
C9    C     C_3   0.215896 0.754914 0.450728 -0.127114
C10   C     C_3   0.192347 0.745693 0.039692 -0.125933
C11   C     C_3   0.204990 0.276976 0.541655 -0.106061
C12   C     C_3   0.180212 0.260580 0.952548 -0.101641
C13   C     C_3   0.715896 0.254914 0.450728 -0.127171
C14   C     C_3   0.682125 0.214590 0.030789 -0.103439
C15   C     C_3   0.704987 0.776976 0.541655 -0.106300
C16   C     C_3   0.678457 0.789353 0.970881 -0.102117
C17   C     C_3   0.083951 0.747144 0.427667 0.055675
C18   C     C_3   0.065122 0.741633 0.069461 0.058792
C19   C     C_3   0.083801 0.253490 0.573210 0.054955
C20   C     C_3   0.045688 0.267454 0.935100 0.055740
C21   C     C_3   0.583950 0.247144 0.427667 0.055671
C22   C     C_3   0.572247 0.243545 0.070577 0.057093
C23   C     C_3   0.583799 0.753490 0.573209 0.056837
C24   C     C_3   0.573018 0.756404 0.929451 0.056220
C25   C     C_R   0.317731 0.019990 0.430807 -0.010455
C26   C     C_R   0.318691 0.016525 0.070897 -0.009161
C27   C     C_R   0.316335 0.992577 0.574633 -0.006639
C28   C     C_R   0.318161 0.987296 0.927605 -0.007862
C29   C     C_R   0.817731 0.519990 0.430807 -0.010051
C30   C     C_R   0.818962 0.515196 0.071437 -0.007890
C31   C     C_R   0.816336 0.492577 0.574633 -0.007248
C32   C     C_R   0.819129 0.486112 0.928145 -0.007168
C33   C     C_R   0.536101 0.990313 0.432238 -0.120277
C34   C     C_R   0.538863 0.990274 0.072041 -0.118020
C35   C     C_R   0.534936 0.022743 0.576829 -0.108714
C36   C     C_R   0.538611 0.012389 0.926245 -0.118704
C37   C     C_R   0.036101 0.490314 0.432238 -0.120190
C38   C     C_R   0.037322 0.484809 0.072445 -0.115432
C39   C     C_R   0.034936 0.522742 0.576828 -0.108908
C40   C     C_R   0.038129 0.515981 0.927669 -0.116536
C41   C     C_R   0.643677 0.994034 0.469999 -0.069355
C42   C     C_R   0.647011 0.991736 0.034924 -0.065183
C43   C     C_R   0.643892 0.016933 0.540742 -0.066368
C44   C     C_R   0.647068 0.008680 0.962908 -0.069974
C45   C     C_R   0.143677 0.494034 0.469999 -0.069529
C46   C     C_R   0.145499 0.487889 0.035401 -0.066157
C47   C     C_R   0.143892 0.516933 0.540741 -0.066376
C48   C     C_R   0.146229 0.510517 0.964673 -0.069899
C49   C     C_R   0.425629 0.009047 0.540607 -0.013167
C50   C     C_R   0.428311 0.001858 0.962198 -0.008252
C51   C     C_R   0.426548 0.005840 0.466542 -0.017962
C52   C     C_R   0.428566 0.001997 0.036294 -0.007663
C53   C     C_R   0.925629 0.509047 0.540607 -0.013341
C54   C     C_R   0.928456 0.502112 0.962855 -0.019523
C55   C     C_R   0.926548 0.505840 0.466542 -0.017835
C56   C     C_R   0.928298 0.499721 0.036981 -0.023230
C57   C     C_R   0.204912 0.992331 0.535250 -0.049301
C58   C     C_R   0.206759 0.986985 0.966495 -0.048016
C59   C     C_R   0.206861 0.023317 0.469787 -0.045693
C60   C     C_R   0.207844 0.018429 0.031703 -0.052699
C61   C     C_R   0.704912 0.492331 0.535250 -0.049477
C62   C     C_R   0.708954 0.483780 0.967661 -0.047086
C63   C     C_R   0.706861 0.523317 0.469788 -0.045500
C64   C     C_R   0.709100 0.517455 0.031674 -0.047814
C65   C     C_R   0.092647 0.960193 0.555186 -0.130281
C66   C     C_R   0.094008 0.956563 0.944919 -0.124763
C67   C     C_R   0.096011 0.051809 0.445451 -0.123732
C68   C     C_R   0.097106 0.049425 0.053911 -0.124289
C69   C     C_R   0.592648 0.460193 0.555185 -0.130696
C70   C     C_R   0.598066 0.451929 0.946542 -0.130721
C71   C     C_R   0.596011 0.551809 0.445451 -0.123955
C72   C     C_R   0.598314 0.548165 0.053212 -0.131128
C73   C     C_R   0.983367 0.978314 0.523313 0.267028
C74   C     C_R   0.984864 0.975570 0.975877 0.273392
C75   C     C_R   0.984737 0.029733 0.471571 0.273473
C76   C     C_R   0.986061 0.028884 0.025899 0.279314
C77   C     C_R   0.483367 0.478314 0.523313 0.266832
C78   C     C_R   0.487660 0.473101 0.974715 0.271354
C79   C     C_R   0.484738 0.529733 0.471571 0.273359
C80   C     C_R   0.487747 0.525191 0.026224 0.273324
C81   C     C_R   0.184178 0.771359 0.636257 0.553442
C82   C     C_R   0.143626 0.760180 0.859553 0.551029
C83   C     C_R   0.180573 0.229427 0.364334 0.551296
C84   C     C_R   0.175665 0.230794 0.135230 0.544841
C85   C     C_R   0.684178 0.271360 0.636257 0.554073
C86   C     C_R   0.636768 0.258966 0.857838 0.538006
C87   C     C_R   0.680570 0.729428 0.364334 0.549024
C88   C     C_R   0.635352 0.741249 0.142500 0.542784
C89   C     C_R   0.543822 0.769278 0.645384 0.539045
C90   C     C_R   0.543193 0.769491 0.855030 0.542449
C91   C     C_R   0.541329 0.229880 0.355884 0.541713
C92   C     C_R   0.542711 0.230434 0.144934 0.540131
C93   C     C_R   0.043825 0.269277 0.645386 0.547486
C94   C     C_R   0.004806 0.284842 0.863375 0.552662
C95   C     C_R   0.041329 0.729880 0.355883 0.541492
C96   C     C_R   0.037538 0.728569 0.143351 0.550091
C97   C     C_3   0.044878 0.808134 0.474881 -0.120118
C98   C     C_3   0.021870 0.802212 0.023348 -0.116210
C99   C     C_3   0.091170 0.182628 0.536510 -0.119143
C100  C     C_3   0.015168 0.201901 0.977878 -0.117890
C101  C     C_3   0.544878 0.308134 0.474881 -0.120218
C102  C     C_3   0.580612 0.313363 0.031925 -0.117787
C103  C     C_3   0.591167 0.682629 0.536509 -0.119347
C104  C     C_3   0.587089 0.686702 0.967675 -0.123318
C105  C     C_3   0.178368 0.816373 0.499411 -0.156086
C106  C     C_3   0.151039 0.806358 0.992149 -0.142347
C107  C     C_3   0.213727 0.205409 0.503301 -0.153621
C108  C     C_3   0.151224 0.194959 0.996506 -0.159949
C109  C     C_3   0.678368 0.316373 0.499411 -0.156095
C110  C     C_3   0.691364 0.284763 0.990723 -0.131723
C111  C     C_3   0.713724 0.705410 0.503301 -0.153664
C112  C     C_3   0.693348 0.719206 0.010485 -0.127827
C113  C     C_3   0.153296 0.764224 0.559824 0.036272
C114  C     C_3   0.112469 0.753294 0.934686 0.043092
C115  C     C_3   0.144179 0.236511 0.439862 0.033048
C116  C     C_3   0.130819 0.241718 0.062052 0.037696
C117  C     C_3   0.653297 0.264225 0.559824 0.036110
C118  C     C_3   0.604786 0.255127 0.933643 0.032733
C119  C     C_3   0.644177 0.736512 0.439862 0.034284
C120  C     C_3   0.602652 0.745022 0.066754 0.033044
C121  C     C_3   0.021578 0.755572 0.536013 -0.123911
C122  C     C_3   0.984963 0.748696 0.964809 -0.148533
C123  C     C_3   0.022584 0.213804 0.471928 -0.124703
C124  C     C_3   0.996055 0.249042 0.044274 -0.127012
C125  C     C_3   0.521578 0.255572 0.536013 -0.123937
C126  C     C_3   0.494984 0.284070 0.973359 -0.133013
C127  C     C_3   0.522581 0.713804 0.471927 -0.124828
C128  C     C_3   0.497261 0.712049 0.025431 -0.136152
C129  C     C_3   0.060298 0.694432 0.487856 -0.103702
C130  C     C_3   0.027519 0.687808 0.012456 -0.110278
C131  C     C_3   0.015006 0.285063 0.510077 -0.110551
C132  C     C_3   0.026207 0.314789 0.999961 -0.128406
C133  C     C_3   0.560299 0.194432 0.487856 -0.103589
C134  C     C_3   0.485911 0.214040 0.013467 -0.106790
C135  C     C_3   0.515004 0.785063 0.510077 -0.109656
C136  C     C_3   0.482517 0.781951 0.985729 -0.106114
C137  C     C_3   0.192751 0.702825 0.512148 -0.089458
C138  C     C_3   0.155987 0.692478 0.981450 -0.084863
C139  C     C_3   0.136593 0.307717 0.477553 -0.078452
C140  C     C_3   0.161580 0.307472 0.018477 -0.084953
C141  C     C_3   0.692751 0.202826 0.512148 -0.089651
C142  C     C_3   0.596318 0.185741 0.973014 -0.093916
C143  C     C_3   0.636591 0.807717 0.477553 -0.078537
C144  C     C_3   0.588335 0.814282 0.027830 -0.097565
Cr1   Cr    Cr6+3 0.488160 0.884660 0.750000 1.007809
Cr2   Cr    Cr6+3 0.488160 0.115340 0.250000 1.007079
Cr3   Cr    Cr6+3 0.988160 0.384660 0.750000 1.004882
Cr4   Cr    Cr6+3 0.988160 0.615340 0.250000 1.009858
Cr5   Cr    Cr6+3 0.173480 0.883120 0.750000 0.990599
Cr6   Cr    Cr6+3 0.173480 0.116880 0.250000 0.991160
Cr7   Cr    Cr6+3 0.673480 0.383120 0.750000 0.983770
Cr8   Cr    Cr6+3 0.673480 0.616880 0.250000 0.986817
Cr9   Cr    Cr6+3 0.333410 0.727260 0.750000 1.015788
Cr10  Cr    Cr6+3 0.333410 0.272740 0.250000 1.017789
Cr11  Cr    Cr6+3 0.833410 0.227260 0.750000 1.015941
Cr12  Cr    Cr6+3 0.833410 0.772740 0.250000 1.021996
H1    H     H_    0.982949 0.849792 0.456501 0.163667
H2    H     H_    0.966681 0.845929 0.044291 0.169421
H3    H     H_    0.071940 0.133116 0.565074 0.137007
H4    H     H_    0.953321 0.160089 0.958568 0.167233
H5    H     H_    0.482949 0.349792 0.456501 0.163591
H6    H     H_    0.575069 0.364150 0.060438 0.135930
H7    H     H_    0.571937 0.633116 0.565074 0.136273
H8    H     H_    0.587678 0.635847 0.939039 0.132274
H9    H     H_    0.947170 0.752959 0.575066 0.116113
H10   H     H_    0.905279 0.747751 0.929111 0.104762
H11   H     H_    0.948761 0.188532 0.441707 0.130453
H12   H     H_    0.924075 0.245630 0.085128 0.117113
H13   H     H_    0.447171 0.252959 0.575067 0.116591
H14   H     H_    0.419919 0.312045 0.947982 0.131114
H15   H     H_    0.448760 0.688532 0.441705 0.130073
H16   H     H_    0.424164 0.680926 0.049353 0.139087
H17   H     H_    0.254398 0.660020 0.528307 0.163491
H18   H     H_    0.213574 0.648715 0.963120 0.157144
H19   H     H_    0.156881 0.358009 0.451392 0.144364
H20   H     H_    0.225111 0.349332 0.035534 0.159846
H21   H     H_    0.754398 0.160021 0.528307 0.163465
H22   H     H_    0.604540 0.137093 0.942850 0.134523
H23   H     H_    0.656879 0.858009 0.451391 0.144192
H24   H     H_    0.587993 0.863185 0.058168 0.129714
H25   H     H_    0.724904 0.977995 0.443346 0.218677
H26   H     H_    0.728865 0.978758 0.062974 0.214662
H27   H     H_    0.726947 0.027499 0.569115 0.194843
H28   H     H_    0.729138 0.020487 0.934498 0.205682
H29   H     H_    0.224905 0.477995 0.443345 0.218618
H30   H     H_    0.227042 0.473335 0.062840 0.205085
H31   H     H_    0.226947 0.527498 0.569115 0.194771
H32   H     H_    0.228832 0.522946 0.937140 0.202662
H33   H     H_    0.539708 0.973288 0.377331 0.137897
H34   H     H_    0.543024 0.975681 0.127525 0.133512
H35   H     H_    0.536908 0.037175 0.632586 0.135389
H36   H     H_    0.542550 0.027027 0.870738 0.131377
H37   H     H_    0.039708 0.473288 0.377331 0.138747
H38   H     H_    0.039796 0.469216 0.127735 0.139693
H39   H     H_    0.036909 0.537175 0.632586 0.135584
H40   H     H_    0.041360 0.531269 0.872299 0.136246
O1    O     O_R   0.575450 0.828820 0.667950 -0.516929
O2    O     O_R   0.575450 0.828820 0.832050 -0.518315
O3    O     O_R   0.575450 0.171180 0.332050 -0.512681
O4    O     O_R   0.575450 0.171180 0.167950 -0.514444
O5    O     O_R   0.075450 0.328820 0.667950 -0.513558
O6    O     O_R   0.075450 0.328820 0.832050 -0.514319
O7    O     O_R   0.075450 0.671180 0.332050 -0.513658
O8    O     O_R   0.075450 0.671180 0.167950 -0.515694
O9    O     O_R   0.416860 0.942890 0.674680 -0.508607
O10   O     O_R   0.416860 0.942890 0.825320 -0.509091
O11   O     O_R   0.416860 0.057110 0.325320 -0.511346
O12   O     O_R   0.416860 0.057110 0.174680 -0.509461
O13   O     O_R   0.916860 0.442890 0.674680 -0.507768
O14   O     O_R   0.916860 0.442890 0.825320 -0.520795
O15   O     O_R   0.916860 0.557110 0.325320 -0.511985
O16   O     O_R   0.916860 0.557110 0.174680 -0.510100
O17   O     O_R   0.213790 0.953680 0.668330 -0.542333
O18   O     O_R   0.213790 0.953680 0.831670 -0.536035
O19   O     O_R   0.213790 0.046320 0.331670 -0.538039
O20   O     O_R   0.213790 0.046320 0.168330 -0.536331
O21   O     O_R   0.713790 0.453680 0.668330 -0.542272
O22   O     O_R   0.713790 0.453680 0.831670 -0.535396
O23   O     O_R   0.713790 0.546320 0.331670 -0.538907
O24   O     O_R   0.713790 0.546320 0.168330 -0.534892
O25   O     O_R   0.121360 0.817890 0.672660 -0.523929
O26   O     O_R   0.121360 0.817890 0.827340 -0.526320
O27   O     O_R   0.121360 0.182110 0.327340 -0.527382
O28   O     O_R   0.121360 0.182110 0.172660 -0.523421
O29   O     O_R   0.621360 0.317890 0.672660 -0.523069
O30   O     O_R   0.621360 0.317890 0.827340 -0.528448
O31   O     O_R   0.621360 0.682110 0.327340 -0.532956
O32   O     O_R   0.621360 0.682110 0.172660 -0.528951
O33   O     O_R   0.206850 0.711370 0.665820 -0.521512
O34   O     O_R   0.206850 0.711370 0.834180 -0.524358
O35   O     O_R   0.206850 0.288630 0.334180 -0.516704
O36   O     O_R   0.206850 0.288630 0.165820 -0.514712
O37   O     O_R   0.706850 0.211370 0.665820 -0.521803
O38   O     O_R   0.706850 0.211370 0.834180 -0.525603
O39   O     O_R   0.706850 0.788630 0.334180 -0.521644
O40   O     O_R   0.706850 0.788630 0.165820 -0.516484
O41   O     O_R   0.457710 0.733190 0.672630 -0.523533
O42   O     O_R   0.457710 0.733190 0.827370 -0.506383
O43   O     O_R   0.457710 0.266810 0.327370 -0.521615
O44   O     O_R   0.457710 0.266810 0.172630 -0.517494
O45   O     O_R   0.957710 0.233190 0.672630 -0.518440
O46   O     O_R   0.957710 0.233190 0.827370 -0.505265
O47   O     O_R   0.957710 0.766810 0.327370 -0.520818
O48   O     O_R   0.957710 0.766810 0.172630 -0.509844
O49   O     O_3   0.331690 0.831680 0.750000 -0.282453
O50   O     O_3   0.331690 0.168320 0.250000 -0.294718
O51   O     O_3   0.831690 0.331680 0.750000 -0.294322
O52   O     O_3   0.831690 0.668320 0.250000 -0.282560
H41   H     H_    0.236249 0.863346 0.502610 0.112919
H42   H     H_    0.211863 0.851513 0.985406 0.108374
H43   H     H_    0.295129 0.171988 0.499091 0.103869
H44   H     H_    0.210616 0.149084 0.991108 0.109907
H45   H     H_    0.736249 0.363346 0.502610 0.113119
H46   H     H_    0.774491 0.315007 0.978649 0.101908
H47   H     H_    0.795126 0.671988 0.499091 0.103767
H48   H     H_    0.777621 0.691268 0.024179 0.111847
O53   O     O_3   0.876901 0.944600 0.540261 -0.741723
H49   H     H_    0.891023 0.912107 0.580437 0.306630
O54   O     O_3   0.878723 0.941572 0.958852 -0.745972
H50   H     H_    0.892891 0.908781 0.918727 0.304511
O55   O     O_3   0.878424 0.057604 0.446603 -0.737972
H51   H     H_    0.893806 0.081700 0.400787 0.309766
O56   O     O_3   0.880132 0.060510 0.046582 -0.741043
H52   H     H_    0.897083 0.094152 0.085698 0.307447
O57   O     O_3   0.376902 0.444600 0.540261 -0.741801
H53   H     H_    0.391023 0.412107 0.580437 0.306674
O58   O     O_3   0.380827 0.442655 0.953176 -0.739391
H54   H     H_    0.393275 0.420299 0.906021 0.306329
O59   O     O_3   0.378425 0.557604 0.446602 -0.738099
H55   H     H_    0.393808 0.581699 0.400786 0.309118
O60   O     O_3   0.380734 0.553148 0.049734 -0.737340
H56   H     H_    0.394402 0.575281 0.096954 0.306350
H57   H     H_    0.010439 0.644463 0.481179 0.130935
H58   H     H_    0.976145 0.639275 0.023598 0.129899
H59   H     H_    0.934680 0.319133 0.514994 0.106797
H60   H     H_    0.972264 0.363241 0.999060 0.119826
H61   H     H_    0.510440 0.144463 0.481179 0.131018
H62   H     H_    0.403040 0.183588 0.025572 0.102203
H63   H     H_    0.434679 0.819133 0.514994 0.106872
H64   H     H_    0.398349 0.809649 0.971997 0.111870
H65   H     H_    0.291481 0.756816 0.412085 0.114410
H66   H     H_    0.271143 0.747917 0.075993 0.108010
H67   H     H_    0.273396 0.306003 0.573170 0.125745
H68   H     H_    0.250852 0.263495 0.910870 0.125319
H69   H     H_    0.791481 0.256816 0.412084 0.115473
H70   H     H_    0.755446 0.184225 0.055932 0.139137
H71   H     H_    0.773392 0.806002 0.573171 0.125311
H72   H     H_    0.749472 0.822554 0.946808 0.143949
H73   H     H_    0.093082 0.093857 0.408757 0.171605
H74   H     H_    0.094663 0.092809 0.089592 0.169077
H75   H     H_    0.087232 0.915972 0.590002 0.170515
H76   H     H_    0.087798 0.913413 0.908676 0.170921
H77   H     H_    0.593083 0.593857 0.408757 0.172030
H78   H     H_    0.595215 0.592240 0.088200 0.175692
H79   H     H_    0.587232 0.415972 0.590002 0.170767
H80   H     H_    0.594853 0.407707 0.911705 0.176704

loop_
_geom_bond_atom_site_label_1
_geom_bond_atom_site_label_2
_ccdc_geom_bond_type
C6    C32   S    
C7    C29   S    
C119  C143  S    
Cr6   O27   S    
C120  C144  S    
C110  C118  S    
C85   O37   A    
C16   C144  S    
C48   H32   S    
C30   C64   A    
Cr4   O16   S    
C73   O53   S    
C57   C59   A    
Cr11  O37   S    
Cr12  O39   S    
C58   C60   A    
O60   H56   S    
C132  H60   S    
C87   O39   A    
C62   C70   A    
C33   H33   S    
C61   C63   A    
C96   O48   A    
C62   C64   A    
C124  H12   S    
C23   C103  S    
Cr10  O50   S    
C49   C51   A    
C34   C42   A    
C138  H18   S    
C50   C52   A    
C23   C89   S    
C15   H71   S    
C125  H13   S    
C97   C105  S    
C81   O33   A    
C41   C43   A    
C88   C120  S    
C42   C44   A    
C20   C132  S    
C21   C133  S    
C4    O12   A    
C45   C47   A    
C111  H47   S    
C46   C48   A    
C115  C123  S    
C90   O42   A    
C27   C57   A    
C57   C65   A    
C112  C120  S    
C19   C99   S    
C29   C55   A    
C39   H39   S    
C100  C124  S    
C37   H37   S    
C137  H17   S    
C104  C128  S    
C34   H34   S    
C140  H20   S    
C12   C20   S    
C85   O29   A    
C13   C21   S    
C46   H30   S    
C85   C117  S    
C12   H68   S    
C13   H69   S    
Cr7   O29   S    
C63   C71   A    
C2    O18   A    
Cr11  O51   S    
C141  H21   S    
C36   C44   A    
C33   C51   A    
C37   C45   A    
C130  C138  S    
C36   C50   A    
C39   C47   A    
C40   C48   A    
C20   C94   S    
C133  C141  S    
Cr2   O11   S    
C24   C90   S    
C104  H8    S    
C82   O26   A    
C23   C135  S    
C67   H73   S    
C98   C106  S    
Cr1   O49   S    
C3    O11   A    
C106  H42   S    
C33   C41   A    
C45   H29   S    
C81   O25   A    
C10   C18   S    
C94   O6    A    
C43   H27   S    
Cr2   O4    S    
C84   O36   A    
Cr5   O17   S    
C32   C62   A    
Cr11  O46   S    
C129  C137  S    
C126  C134  S    
C7    O23   A    
C10   C138  S    
C3    O19   A    
C14   C142  S    
C4    O20   A    
C99   H3    S    
Cr10  O35   S    
C69   C77   A    
C28   C58   A    
C71   C79   A    
C133  H61   S    
Cr1   O1    S    
C79   O59   S    
C74   C76   A    
C108  H44   S    
C105  C113  S    
C110  H46   S    
O55   H51   S    
C78   C80   A    
C95   O7    A    
C66   C74   A    
Cr10  O44   S    
C124  C132  S    
C111  C119  S    
O53   H49   S    
C71   H77   S    
C97   C121  S    
Cr12  O48   S    
C59   C67   A    
C144  H24   S    
C35   C49   A    
C101  C125  S    
Cr7   O21   S    
C2    O10   A    
C143  H23   S    
Cr3   O14   S    
C103  C127  S    
C24   C136  S    
C135  C143  S    
C84   C116  S    
Cr9   O33   S    
C96   O8    A    
C5    O21   A    
C100  C108  S    
C9    H65   S    
C83   C115  S    
Cr3   O5    S    
C104  C112  S    
C87   C119  S    
C126  H14   S    
Cr8   O31   S    
Cr6   O19   S    
C15   C143  S    
C40   C54   A    
C10   C106  S    
C67   C75   A    
Cr5   O26   S    
C127  H15   S    
C47   H31   S    
C93   O5    A    
Cr4   O8    S    
Cr6   O50   S    
C92   O44   A    
C35   H35   S    
C36   H36   S    
Cr6   O28   S    
C102  C126  S    
C7    O15   A    
O58   H54   S    
C68   C76   A    
C5    O13   A    
C78   O58   S    
C14   C22   S    
C83   O27   A    
Cr1   O2    S    
C72   C80   A    
C93   O45   A    
C88   O32   A    
Cr10  O36   S    
Cr12  O40   S    
C14   C110  S    
C114  C138  S    
C38   C46   A    
C131  C139  S    
C37   C55   A    
C38   C56   A    
C22   C92   S    
C25   C59   A    
C8    O16   A    
C17   C97   S    
C27   C49   A    
C119  C127  S    
C29   C63   A    
C68   H74   S    
C73   C75   A    
C31   C61   A    
C129  H57   S    
C11   H67   S    
C75   O55   S    
C109  C117  S    
O56   H52   S    
C42   H26   S    
C11   C19   S    
C86   O38   A    
Cr9   O42   S    
C135  H63   S    
C136  H64   S    
C127  C135  S    
C128  C136  S    
Cr7   O51   S    
C112  H48   S    
C101  C109  S    
Cr8   O23   S    
C103  C111  S    
C11   C139  S    
C6    O22   A    
C9    C137  S    
C98   H2    S    
Cr9   O49   S    
C12   C140  S    
C17   C95   S    
C13   C141  S    
C130  H58   S    
C19   C93   S    
C77   C79   A    
C82   O34   A    
O59   H55   S    
C41   H25   S    
C32   C54   A    
C134  H62   S    
C89   O41   A    
C3    C25   S    
Cr2   O12   S    
Cr12  O52   S    
Cr4   O15   S    
Cr11  O38   S    
Cr1   O9    S    
C38   H38   S    
C117  C141  S    
C134  C142  S    
C20   C100  S    
C102  H6    S    
C86   C118  S    
C90   O2    A    
Cr11  O45   S    
C22   C134  S    
C87   O31   A    
C84   O28   A    
C102  C110  S    
C121  H9    S    
C16   C112  S    
C12   C108  S    
C21   C91   S    
C89   O1    A    
Cr5   O49   S    
C116  C124  S    
C123  C131  S    
C121  C129  S    
C4    C26   S    
C120  C128  S    
C132  C140  S    
C99   C107  S    
Cr2   O50   S    
C34   C52   A    
C107  H43   S    
C80   O60   S    
C8    C30   S    
C108  C116  S    
C105  H41   S    
C136  C144  S    
C91   O3    A    
C39   C53   A    
C30   C56   A    
C109  H45   S    
C77   O57   S    
Cr8   O52   S    
Cr7   O30   S    
C60   C68   A    
C81   C113  S    
Cr3   O13   S    
C9    C105  S    
C122  H10   S    
C70   C78   A    
C18   C96   S    
C139  H19   S    
C142  H22   S    
C74   O54   S    
C83   O35   A    
C106  C114  S    
C10   H66   S    
C14   H70   S    
Cr4   O52   S    
C65   C73   A    
Cr2   O3    S    
Cr5   O18   S    
Cr8   O32   S    
C28   C50   A    
C58   C66   A    
C13   C109  S    
C69   H79   S    
C70   H80   S    
C16   H72   S    
C1    O9    A    
O57   H53   S    
C44   H28   S    
C123  H11   S    
C65   H75   S    
C15   C23   S    
Cr3   O51   S    
C16   C24   S    
Cr5   O25   S    
Cr1   O10   S    
C53   C55   A    
C19   C131  S    
C88   O40   A    
C54   C56   A    
C17   C129  S    
C15   C111  S    
C82   C114  S    
Cr10  O43   S    
C24   C104  S    
C97   H1    S    
C25   C51   A    
C131  H59   S    
C8    O24   A    
Cr12  O47   S    
C26   C52   A    
C100  H4    S    
C125  C133  S    
Cr7   O22   S    
C113  C121  S    
C31   C53   A    
C107  C115  S    
C98   C122  S    
C9    C17   S    
C76   O56   S    
C128  H16   S    
Cr6   O20   S    
C11   C107  S    
C86   O30   A    
Cr9   O34   S    
O54   H50   S    
C35   C43   A    
C99   C123  S    
C40   H40   S    
C61   C69   A    
Cr3   O6    S    
C115  C139  S    
C118  C142  S    
C6    O14   A    
C118  C126  S    
C103  H7    S    
C22   C102  S    
Cr9   O41   S    
C101  H5    S    
C94   O46   A    
C21   C101  S    
C92   O4    A    
C1    O17   A    
C26   C60   A    
Cr8   O24   S    
C113  C137  S    
C64   C72   A    
C18   C130  S    
C66   H76   S    
C114  C122  S    
C91   O43   A    
C1    C27   S    
C2    C28   S    
C18   C98   S    
C5    C31   S    
C117  C125  S    
C72   H78   S    
C122  C130  S    
Cr4   O7    S    
C95   O47   A    
C116  C140  S    
