data_str_m9_o11_o16_f0_sra.sym.74
_audit_creation_date              2012-12-11T14:17:48-0500
_audit_creation_method            fapswitch 2.2
_symmetry_space_group_name_H-M    P1
_symmetry_Int_Tables_number       1
_space_group_crystal_system       triclinic
_cell_length_a                    6.944417
_cell_length_b                    13.748709
_cell_length_c                    20.450364
_cell_angle_alpha                 102.384488
_cell_angle_beta                  90.586828
_cell_angle_gamma                 90.710523
_cell_volume                      1906.78689967

loop_
_atom_site_label
_atom_site_type_symbol
_atom_type_description
_atom_site_fract_x
_atom_site_fract_y
_atom_site_fract_z
_atom_type_partial_charge
O1    O     O_R   0.506860 0.599390 0.449240 -0.541821
O2    O     O_R   0.180220 0.594600 0.586780 -0.551945
O3    O     O_R   0.004500 0.400610 0.550760 -0.551645
C1    C     C_R   0.349662 0.615261 0.613722 0.769226
O4    O     O_R   0.177490 0.611290 0.451970 -0.534961
O5    O     O_R   0.001750 0.417420 0.414990 -0.533190
C2    C     C_R   0.346691 0.634853 0.432853 0.694786
O6    O     O_R   0.509610 0.582580 0.585010 -0.540621
O7    O     O_3   0.337420 0.436370 0.488020 -0.371891
V1    V     V_3+5 0.064680 0.511800 0.502220 1.450260
O8    O     O_R   0.671710 0.405400 0.413220 -0.559797
C3    C     C_R   0.838393 0.383110 0.387046 0.743099
O9    O     O_R   0.674440 0.388710 0.548030 -0.528592
C4    C     C_R   0.843310 0.361782 0.563959 0.755991
V2    V     V_3+5 0.564010 0.488200 0.497780 1.455007
O10   O     O_3   0.841140 0.563630 0.511980 -0.373646
C5    C     C_R   0.854303 0.111666 0.609086 0.392617
H1    H     H_    0.840196 0.985991 0.691833 0.138023
C6    C     C_R   0.854195 0.285771 0.603940 -0.306432
C7    C     C_R   0.884634 0.310364 0.927661 -0.286874
C8    C     C_R   0.905660 0.385566 0.892383 0.495476
C9    C     C_R   0.912079 0.360626 0.822906 -0.155874
C10   C     C_R   0.868570 0.263404 0.785887 0.006603
C11   C     C_R   0.850229 0.186004 0.822333 0.022210
C12   C     C_R   0.855069 0.240246 0.713949 -0.027025
C13   C     C_R   0.849689 0.138308 0.679951 -0.141904
C14   C     C_R   0.840216 0.063698 0.716862 -0.213436
C15   C     C_R   0.829234 0.085922 0.786587 0.336344
C16   C     C_R   0.843188 0.314494 0.674692 0.368567
C17   C     C_R   0.868787 0.184697 0.571638 0.303123
C18   C     C_R   0.861950 0.211407 0.893741 -0.149643
H2    H     H_    0.896207 0.328705 0.981784 0.128048
H3    H     H_    0.962233 0.418507 0.799906 0.170088
C19   C     C_2   0.972385 0.249795 0.296982 0.516000
C20   C     C_2   0.834851 0.316350 0.319954 -0.339631
H4    H     H_    0.704426 0.316898 0.290314 0.126593
C21   C     C_2   0.944803 0.176131 0.232013 -0.299558
C22   C     C_2   0.869106 0.196783 0.175484 0.266945
H5    H     H_    0.992930 0.101270 0.231130 0.101277
C23   C     C_2   0.197943 0.784813 0.783496 0.493146
C24   C     C_2   0.359837 0.818602 0.818651 -0.361449
H6    H     H_    0.499489 0.797860 0.797730 0.085607
C25   C     C_2   0.202616 0.720761 0.714022 -0.234135
C26   C     C_2   0.361388 0.680201 0.681671 -0.352853
H7    H     H_    0.064192 0.706525 0.688375 0.154542
H8    H     H_    0.502878 0.691986 0.704877 0.131902
C27   C     C_R   0.516305 0.870171 0.386504 -0.052385
H9    H     H_    0.579728 0.940525 0.412379 0.223301
C28   C     C_R   0.366882 0.712479 0.393599 -0.224737
C29   C     C_R   0.313249 0.691255 0.074481 0.129750
C30   C     C_R   0.348164 0.611687 0.106611 0.305458
C31   C     C_R   0.404929 0.632180 0.173967 0.418569
C32   C     C_R   0.408191 0.731704 0.212078 -0.107868
C33   C     C_R   0.419909 0.809805 0.176715 -0.170532
C34   C     C_R   0.414821 0.754952 0.283641 -0.050791
C35   C     C_R   0.492879 0.848236 0.316717 -0.093949
C36   C     C_R   0.543120 0.920070 0.280171 0.314540
C37   C     C_R   0.490183 0.904693 0.211669 0.355389
C38   C     C_R   0.337574 0.689607 0.322643 0.389250
C39   C     C_R   0.457315 0.803680 0.424931 0.305358
C40   C     C_R   0.363942 0.788776 0.107546 -0.135952
O11   O     O_R   0.203230 0.917310 0.915020 -0.498131
O12   O     O_R   0.535500 0.888690 0.048040 -0.534192
O13   O     O_R   0.711080 0.082610 0.085000 -0.533162
C41   C     C_R   0.367826 0.864928 0.066914 0.881383
O14   O     O_R   0.532630 0.905370 0.913230 -0.547154
O15   O     O_R   0.708190 0.099410 0.949230 -0.534559
C42   C     C_R   0.363377 0.884780 0.886281 0.806194
O16   O     O_R   0.206120 0.900510 0.050790 -0.548351
O17   O     O_3   0.375360 0.063570 0.011990 -0.394519
V3    V     V_3+5 0.648170 0.988200 0.997780 1.509648
O18   O     O_R   0.038240 0.111390 0.951940 -0.543375
C43   C     C_R   0.869513 0.136732 0.934733 0.824699
O19   O     O_R   0.041120 0.094710 0.086750 -0.566900
C44   C     C_R   0.873630 0.117833 0.112685 0.655693
V4    V     V_3+5 0.148810 0.011930 0.002180 1.498369
O20   O     O_3   0.871750 0.936430 0.988010 -0.361395
O21   O     O_3   0.883015 0.152878 0.502854 -0.588039
H10   H     H_    0.909024 0.209826 0.481660 0.297328
O22   O     O_3   0.824045 0.295351 0.175094 -0.564366
C45   C     C_3   0.685455 0.302008 0.125453 -0.168044
H11   H     H_    0.551904 0.259514 0.131607 0.127743
H12   H     H_    0.744655 0.277193 0.074458 0.097699
H13   H     H_    0.645751 0.381176 0.131023 0.213436
O23   O     O_3   0.021775 0.818032 0.810170 -0.538274
C46   C     C_3   0.908401 0.736776 0.819968 -0.218569
H14   H     H_    0.993729 0.679865 0.838648 0.141963
H15   H     H_    0.828444 0.703025 0.773200 0.107464
H16   H     H_    0.800410 0.764868 0.858740 0.177819
O24   O     O_3   0.489824 0.831815 0.493280 -0.625168
H17   H     H_    0.413107 0.789000 0.516726 0.285971
O25   O     O_3   0.633662 0.007263 0.313487 -0.639436
H18   H     H_    0.682191 0.044933 0.280784 0.316184
O26   O     O_3   0.199014 0.619908 0.292193 -0.542433
C47   C     C_3   0.239884 0.522228 0.298766 -0.147228
H19   H     H_    0.141889 0.501704 0.335600 0.145213
H20   H     H_    0.392555 0.510725 0.312269 0.089795
H21   H     H_    0.206505 0.470120 0.250439 0.196736
O27   O     O_3   0.244696 0.675688 0.009363 -0.656198
H22   H     H_    0.164661 0.614207 0.000146 0.333411
O28   O     O_3   0.485235 0.554998 0.197615 -0.631904
H23   H     H_    0.578007 0.583282 0.234119 0.283836
O29   O     O_3   0.342834 0.513165 0.072850 -0.629283
H24   H     H_    0.363389 0.509579 0.024574 0.291918
O30   O     O_3   0.520314 0.981147 0.178675 -0.570671
C48   C     C_3   0.365007 0.046881 0.192509 -0.263285
H25   H     H_    0.353338 0.078734 0.246938 0.162086
H26   H     H_    0.227708 0.008475 0.173380 0.134825
H27   H     H_    0.388276 0.109231 0.166820 0.165149
O31   O     O_3   0.847193 0.013873 0.574320 -0.591207
H28   H     H_    0.737613 0.980724 0.591799 0.307407
O32   O     O_3   0.782395 0.409935 0.704169 -0.554387
C49   C     C_3   0.917943 0.484269 0.695866 -0.240131
H29   H     H_    0.863269 0.525123 0.658412 0.161210
H30   H     H_    0.065433 0.455696 0.682940 0.128692
H31   H     H_    0.931759 0.539878 0.743482 0.131460
O33   O     O_3   0.942592 0.483046 0.924991 -0.564718
C50   C     C_3   0.776879 0.521955 0.960080 -0.256779
H32   H     H_    0.754104 0.489227 0.004660 0.157781
H33   H     H_    0.645998 0.510804 0.927176 0.147561
H34   H     H_    0.798175 0.603415 0.978311 0.172196
O34   O     O_3   0.801357 0.009596 0.819985 -0.630885
H35   H     H_    0.769075 0.946848 0.787453 0.306939
O35   O     O_3   0.117137 0.233056 0.340165 -0.542832
C51   C     C_3   0.293825 0.269012 0.320604 -0.198363
H36   H     H_    0.310300 0.257759 0.265325 0.094102
H37   H     H_    0.412468 0.229122 0.339806 0.174562
H38   H     H_    0.312110 0.349034 0.343975 0.143505

loop_
_geom_bond_atom_site_label_1
_geom_bond_atom_site_label_2
_ccdc_geom_bond_type
O14   C42   A    
C34   C35   A    
O12   C41   A    
O28   H23   S    
C36   O25   S    
C34   C38   A    
C19   C21   S    
C24   H6    S    
C16   O32   S    
C47   H19   S    
O18   V4    S    
C5    O31   S    
C45   H11   S    
C36   C37   A    
C47   H21   S    
C32   C33   A    
C13   C14   A    
C28   C39   A    
O19   V4    S    
C5    C13   A    
C7    H2    S    
C46   H15   S    
C18   C43   S    
C48   H25   S    
C30   O29   S    
V2    O10   S    
C35   C36   A    
O16   V4    S    
C19   C20   D    
O13   V3    S    
O31   H28   S    
C8    O33   S    
C27   C39   A    
C50   H32   S    
O8    V2    S    
C23   C25   S    
C27   H9    S    
C51   H38   S    
C10   C11   A    
O17   V3    S    
O15   C43   A    
C38   O26   S    
O7    V1    S    
C1    O6    A    
C49   H31   S    
C48   H26   S    
C8    C9    A    
C5    C17   A    
O11   V4    S    
O32   C49   S    
C45   H12   S    
C26   H8    S    
C24   C42   S    
C22   C44   S    
C32   C34   A    
C12   C16   A    
C31   O28   S    
O19   C44   A    
C30   C31   A    
V4    O20   S    
C2    C28   S    
O4    C2    A    
C46   H14   S    
O22   C45   S    
C1    C26   S    
C12   C13   A    
O23   C46   S    
C50   H34   S    
C23   O23   S    
O2    C1    A    
C25   C26   D    
C21   C22   D    
O14   V3    S    
C29   C30   A    
C29   O27   S    
C3    C20   S    
C25   H7    S    
O3    C4    A    
O1    V2    S    
C23   C24   D    
O12   V3    S    
O6    V2    S    
O9    V2    S    
O17   V4    S    
C51   H36   S    
O2    V1    S    
V3    O20   S    
C45   H13   S    
C31   C32   A    
C49   H29   S    
C33   C37   A    
C15   O34   S    
C9    H3    S    
C19   O35   S    
O1    C2    A    
C4    C6    S    
H1    C14   S    
C11   C15   A    
O18   C43   A    
C46   H16   S    
O5    V1    S    
O8    C3    A    
C47   H20   S    
C33   C40   A    
C39   O24   S    
O30   C48   S    
C28   C38   A    
O27   H22   S    
O11   C42   A    
C37   O30   S    
O7    V2    S    
C11   C18   A    
O4    V1    S    
C21   H5    S    
O3    V1    S    
V1    O10   S    
O33   C50   S    
O5    C3    A    
O21   H10   S    
O24   H17   S    
C22   O22   S    
C41   O16   A    
O25   H18   S    
O13   C44   A    
O15   V3    S    
C10   C12   A    
O26   C47   S    
C50   H33   S    
C17   O21   S    
C40   C41   S    
C7    C8    A    
O29   H24   S    
C51   H37   S    
C29   C40   A    
C9    C10   A    
C27   C35   A    
C20   H4    S    
C49   H30   S    
O34   H35   S    
O9    C4    A    
C6    C17   A    
C48   H27   S    
O35   C51   S    
C14   C15   A    
C7    C18   A    
C6    C16   A    
