data_str_m2_o10_o29_f0_pcu.sym.222
_audit_creation_date              2012-12-10T16:51:18-0500
_audit_creation_method            fapswitch 2.2
_symmetry_space_group_name_H-M    P1
_symmetry_Int_Tables_number       1
_space_group_crystal_system       triclinic
_cell_length_a                    27.79437
_cell_length_b                    8.669026
_cell_length_c                    7.428086
_cell_angle_alpha                 103.044389
_cell_angle_beta                  93.880831
_cell_angle_gamma                 92.376438
_cell_volume                      1736.64838961

loop_
_atom_site_label
_atom_site_type_symbol
_atom_type_description
_atom_site_fract_x
_atom_site_fract_y
_atom_site_fract_z
_atom_type_partial_charge
C1    C     C_R   0.498542 0.199609 0.453135 0.892736
C2    C     C_R   0.501458 0.800391 0.546865 0.892731
C3    C     C_R   0.102284 0.489482 0.520337 -0.080484
C4    C     C_R   0.897715 0.510664 0.479669 -0.080485
C5    C     C_R   0.124653 0.344780 0.457829 -0.038470
C6    C     C_R   0.875344 0.655357 0.542207 -0.038475
C7    C     C_R   0.095062 0.202507 0.396524 0.158403
C8    C     C_R   0.904933 0.797631 0.603549 0.158410
C9    C     C_R   0.131309 0.630328 0.592158 -0.007119
C10   C     C_R   0.868692 0.369817 0.407807 -0.007129
C11   C     C_R   0.354687 0.497673 0.509907 -0.036562
C12   C     C_R   0.645313 0.502357 0.490092 -0.036558
C13   C     C_R   0.970587 0.358876 0.426323 0.062001
C14   C     C_R   0.029413 0.641287 0.573659 0.062006
C15   C     C_R   0.978177 0.647039 0.558597 -0.002598
C16   C     C_R   0.021821 0.353117 0.441432 -0.002597
C17   C     C_R   0.948999 0.505651 0.488550 0.069860
C18   C     C_R   0.051000 0.494504 0.511459 0.069865
C19   C     C_R   0.939913 0.222703 0.346832 -0.220688
C20   C     C_R   0.060091 0.777471 0.653063 -0.220699
C21   C     C_R   0.890187 0.228310 0.339030 -0.161356
C22   C     C_R   0.109816 0.771851 0.660875 -0.161360
C23   C     C_R   0.407501 0.499515 0.502988 0.799554
C24   C     C_R   0.592499 0.500490 0.497013 0.799558
C25   C     C_R   0.044842 0.209054 0.392144 -0.208883
C26   C     C_R   0.955153 0.791093 0.607950 -0.208868
C27   C     C_2   0.497841 0.031649 0.426711 -0.363269
C28   C     C_2   0.502159 0.968351 0.573289 -0.363266
C29   C     C_R   0.175858 0.349419 0.461250 0.539740
C30   C     C_R   0.824138 0.650705 0.538781 0.539752
C31   C     C_R   0.181586 0.627433 0.594219 0.533287
C32   C     C_R   0.818415 0.372702 0.405746 0.533287
C33   C     C_R   0.283839 0.509342 0.685725 -0.096517
C34   C     C_R   0.716160 0.490862 0.314290 -0.096513
C35   C     C_R   0.333904 0.512361 0.679996 -0.214757
C36   C     C_R   0.666096 0.487809 0.320018 -0.214739
C37   C     C_R   0.324504 0.479944 0.345970 -0.206912
C38   C     C_R   0.675496 0.519984 0.654012 -0.206898
C39   C     C_R   0.274506 0.476747 0.352114 -0.099916
C40   C     C_R   0.725494 0.523219 0.647869 -0.099928
C41   C     C_R   0.254057 0.491363 0.521792 0.365052
C42   C     C_R   0.745942 0.508741 0.478207 0.365081
Cu1   Cu    Cu3+1 0.505380 0.517380 0.684380 0.956297
Cu2   Cu    Cu3+1 0.494620 0.482620 0.315620 0.956297
H1    H     H_    0.339442 0.468388 0.212943 0.157761
H2    H     H_    0.660559 0.531429 0.787028 0.157749
H3    H     H_    0.462185 0.378315 0.948508 0.225522
H4    H     H_    0.537815 0.621685 0.051492 0.225518
H5    H     H_    0.251567 0.463381 0.225107 0.136668
H6    H     H_    0.748433 0.536503 0.774862 0.136647
H7    H     H_    0.643754 0.474297 0.191563 0.158254
H8    H     H_    0.356246 0.525957 0.808463 0.158272
H9    H     H_    0.731861 0.479697 0.182749 0.135621
H10   H     H_    0.268139 0.520609 0.817278 0.135651
H11   H     H_    0.868531 0.119883 0.278194 0.187000
H12   H     H_    0.131474 0.880284 0.721663 0.186996
H13   H     H_    0.952760 0.108821 0.285968 0.142705
H14   H     H_    0.047248 0.891380 0.713833 0.142700
H15   H     H_    0.024454 0.097060 0.351328 0.139826
H16   H     H_    0.975538 0.903088 0.648850 0.139821
H17   H     H_    0.493774 0.959790 0.285565 0.179850
H18   H     H_    0.506226 0.040210 0.714435 0.179851
N1    N     N_R   0.202600 0.489136 0.527161 -0.470304
N2    N     N_R   0.797399 0.510988 0.472836 -0.470309
N3    N     N_2   0.486510 0.456430 0.038510 -0.218325
N4    N     N_2   0.513490 0.543570 0.961490 -0.218326
O1    O     O_R   0.503500 0.286120 0.619780 -0.583322
O2    O     O_R   0.496500 0.713880 0.380220 -0.583325
O3    O     O_R   0.494410 0.256780 0.308360 -0.583171
O4    O     O_R   0.505590 0.743220 0.691640 -0.583173
O5    O     O_R   0.434810 0.514700 0.655690 -0.592133
O6    O     O_R   0.565190 0.485300 0.344310 -0.592131
O7    O     O_R   0.425720 0.485350 0.344280 -0.584507
O8    O     O_R   0.574280 0.514650 0.655720 -0.584507
O9    O     O_2   0.199219 0.216975 0.399215 -0.530377
O10   O     O_2   0.800774 0.783136 0.600853 -0.530372
O11   O     O_2   0.790589 0.237634 0.339872 -0.529043
O12   O     O_2   0.209415 0.762502 0.660058 -0.529043
C43   C     C_3   0.115011 0.040520 0.336334 -0.735161
H19   H     H_    0.086228 0.943359 0.300980 0.200386
H20   H     H_    0.134760 0.034799 0.210214 0.259707
H21   H     H_    0.139126 0.015516 0.450318 0.263611
C44   C     C_3   0.884980 0.959615 0.663738 -0.735151
H22   H     H_    0.913761 0.056783 0.699105 0.200373
H23   H     H_    0.860868 0.984619 0.549745 0.263614
H24   H     H_    0.865227 0.965331 0.789850 0.259704

loop_
_geom_bond_atom_site_label_1
_geom_bond_atom_site_label_2
_ccdc_geom_bond_type
C29   N1    A    
C30   N2    A    
C8    C44   S    
C8    C26   A    
C14   C18   A    
C34   C42   A    
C21   H11   S    
C39   C41   A    
C19   H13   S    
C7    C43   S    
C19   C21   A    
C2    O2    A    
C9    C22   A    
C33   H10   S    
C3    C18   A    
C11   C37   A    
C27   H17   S    
C1    O1    A    
C32   O11   S    
C12   C36   A    
Cu1   O8    S    
C40   C42   A    
Cu2   N3    S    
C23   O7    A    
C5    C29   A    
C10   C21   A    
C13   C19   A    
C23   O5    A    
C32   N2    A    
C4    C6    A    
C5    C7    A    
C15   C26   A    
C6    C8    A    
C6    C30   A    
C1    O3    A    
Cu1   Cu2   S    
C3    C9    A    
C14   C20   A    
C30   O10   S    
C44   H22   S    
Cu2   O3    S    
C36   H7    S    
C4    C17   A    
Cu1   O1    S    
C44   H23   S    
C20   C22   A    
Cu1   O4    S    
Cu2   O2    S    
C41   N1    S    
C20   H14   S    
C42   N2    S    
C35   H8    S    
C24   O6    A    
C31   O12   S    
C43   H20   S    
C16   C25   A    
C15   C17   A    
Cu1   O5    S    
C39   H5    S    
C4    C10   A    
C3    C5    A    
C43   H21   S    
C22   H12   S    
C29   O9    S    
C31   N1    A    
C12   C24   S    
C7    C25   A    
C13   C17   A    
C33   C41   A    
C11   C35   A    
C37   C39   A    
C38   C40   A    
C24   O8    A    
C26   H16   S    
Cu1   N4    S    
C40   H6    S    
C11   C23   S    
C33   C35   A    
Cu2   O6    S    
C34   C36   A    
C12   C38   A    
Cu2   O7    S    
C38   H2    S    
C9    C31   A    
C43   H19   S    
C10   C32   A    
C44   H24   S    
C34   H9    S    
C16   C18   A    
N3    N4    D    
C13   C16   A    
C27   C28   D    
C1    C27   S    
C14   C15   A    
C2    C28   S    
C25   H15   S    
H4    N4    S    
C2    O4    A    
C37   H1    S    
H3    N3    S    
C28   H18   S    
