data_str_m3_o40_o40_f0_fof.sym.47
_audit_creation_date              2012-12-10T16:37:25-0500
_audit_creation_method            fapswitch 2.2
_symmetry_space_group_name_H-M    P1
_symmetry_Int_Tables_number       1
_space_group_crystal_system       triclinic
_cell_length_a                    16.941154
_cell_length_b                    16.800715
_cell_length_c                    16.84813
_cell_angle_alpha                 65.655456
_cell_angle_beta                  66.061067
_cell_angle_gamma                 65.289958
_cell_volume                      3807.79557354

loop_
_atom_site_label
_atom_site_type_symbol
_atom_type_description
_atom_site_fract_x
_atom_site_fract_y
_atom_site_fract_z
_atom_type_partial_charge
C1    C     C_R   0.450520 0.943580 0.691774 0.513807
C2    C     C_R   0.413341 0.668221 0.028170 0.455693
C3    C     C_3   0.350851 0.740917 0.909040 -0.060766
C4    C     C_3   0.007683 0.693674 0.201339 -0.251292
C5    C     C_3   0.007108 0.286632 0.813794 -0.293355
C6    C     C_3   0.616861 0.218554 0.638122 -0.118474
C7    C     C_3   0.238239 0.927832 0.238436 -0.096860
C8    C     C_3   0.207015 0.641007 0.695371 -0.163998
C9    C     C_3   0.803701 0.345123 0.287091 -0.226847
C10   C     C_3   0.737867 0.739992 0.120067 -0.195769
C11   C     C_3   0.347445 0.279684 0.802944 -0.164331
C12   C     C_2   0.507094 0.874391 0.826515 0.478812
C13   C     C_R   0.016260 0.564245 0.323296 0.457076
C14   C     C_2   0.450400 0.147290 0.181339 0.521758
C15   C     C_2   0.859948 0.811225 0.528767 0.465372
C16   C     C_2   0.822730 0.266381 0.607106 0.414342
C17   C     C_2   0.825262 0.524919 0.859812 0.471774
C18   C     C_2   0.220619 0.615692 0.958015 0.477636
C19   C     C_2   0.250851 0.839709 0.606781 0.528397
C20   C     C_2   0.753732 0.136412 0.386951 0.512072
C21   C     C_2   0.615087 0.241737 0.845441 0.498858
C22   C     C_2   0.384559 0.750004 0.133453 0.493808
C23   C     C_2   0.116073 0.484337 0.203883 0.420956
C24   C     C_R   0.032486 0.399869 0.679203 0.451431
C25   C     C_2   0.152193 0.388363 0.738014 0.432944
C26   C     C_R   0.958801 0.179439 0.439134 0.983937
C27   C     C_R   0.024159 0.822011 0.568421 0.995266
C28   C     C_R   0.179324 0.434779 0.968874 1.012929
C29   C     C_R   0.823255 0.569187 0.022774 1.011906
C30   C     C_R   0.430526 0.977977 0.176706 0.943427
C31   C     C_R   0.569029 0.021641 0.822504 0.941750
C32   C     C_R   0.561856 0.820194 0.039181 0.921359
C33   C     C_R   0.506570 0.094102 0.317029 0.560822
C34   C     C_R   0.436777 0.179793 0.964420 0.965032
C35   C     C_R   0.037363 0.561794 0.820840 1.022669
C36   C     C_R   0.974491 0.432057 0.178297 0.995597
C37   C     C_R   0.820247 0.035754 0.562427 0.980896
C38   C     C_R   0.179181 0.959267 0.438925 0.879123
C39   C     C_R   0.509082 0.938283 0.734479 -0.113847
C40   C     C_R   0.462726 0.080145 0.269996 -0.138863
C41   C     C_R   0.941522 0.732094 0.511140 -0.123047
C42   C     C_R   0.900951 0.304044 0.558757 -0.120506
C43   C     C_R   0.741147 0.514713 0.933431 -0.100971
C44   C     C_R   0.950887 0.689913 0.448650 0.464802
C45   C     C_R   0.280376 0.528494 0.002802 -0.093068
C46   C     C_R   0.316995 0.891661 0.552921 -0.165793
C47   C     C_R   0.696228 0.074402 0.442734 -0.159920
C48   C     C_R   0.561032 0.309304 0.896651 -0.108525
C49   C     C_R   0.449160 0.700877 0.065805 -0.049738
C50   C     C_R   0.033091 0.499582 0.280217 -0.110977
C51   C     C_R   0.071842 0.443660 0.702865 -0.121198
C52   C     C_R   0.549680 0.000682 0.544723 -0.094661
C53   C     C_R   0.447072 0.986897 0.455729 -0.093843
C54   C     C_R   0.994712 0.542554 0.560007 -0.131142
C55   C     C_R   0.931981 0.331531 0.607257 0.443957
C56   C     C_R   0.970556 0.451950 0.467515 -0.122223
C57   C     C_R   0.554964 0.551376 0.995132 -0.090843
C58   C     C_R   0.466313 0.454081 0.973704 -0.075286
C59   C     C_R   0.570950 0.031703 0.448893 -0.075485
C60   C     C_R   0.431918 0.946845 0.550533 -0.064663
C61   C     C_R   0.995920 0.448681 0.602648 0.005441
C62   C     C_R   0.985644 0.539305 0.420587 0.005262
C63   C     C_R   0.460696 0.581077 0.013636 -0.076655
C64   C     C_R   0.562116 0.429085 0.944284 -0.010545
C65   C     C_R   0.511076 0.035913 0.405871 -0.074921
C66   C     C_R   0.703157 0.451977 0.939217 0.449161
C67   C     C_R   0.476513 0.963126 0.596176 -0.070536
C68   C     C_R   0.416706 0.525778 0.013769 -0.040299
C69   C     C_R   0.607527 0.475154 0.959970 -0.032602
C70   C     C_R   0.966716 0.409076 0.561521 -0.002636
C71   C     C_R   0.978199 0.591633 0.473680 0.005875
C72   C     C_R   0.574421 0.985690 0.685731 -0.123655
C73   C     C_R   0.417666 0.011872 0.314845 -0.149581
C74   C     C_R   0.994032 0.683907 0.572528 -0.020424
C75   C     C_R   0.932067 0.328293 0.463658 -0.042577
C76   C     C_R   0.690755 0.576617 0.986080 -0.049734
C77   C     C_R   0.322623 0.542045 0.049841 0.439826
C78   C     C_R   0.323547 0.449357 0.970626 -0.033227
C79   C     C_R   0.329147 0.935326 0.458672 -0.110511
C80   C     C_R   0.674381 0.045140 0.539248 -0.125271
C81   C     C_R   0.464951 0.330054 0.933212 0.000940
C82   C     C_R   0.544228 0.673249 0.049092 -0.064210
C83   C     C_R   0.985052 0.435527 0.323402 -0.031123
C84   C     C_R   0.046318 0.539546 0.677720 -0.015941
C85   C     C_R   0.607987 0.020203 0.727369 -0.232557
C86   C     C_R   0.388107 0.976991 0.270655 -0.222132
C87   C     C_R   0.027980 0.725956 0.606191 -0.165085
C88   C     C_R   0.375570 0.888586 0.595151 0.576573
C89   C     C_R   0.931913 0.279612 0.411436 -0.129840
C90   C     C_R   0.730027 0.609565 0.022739 -0.180298
C91   C     C_R   0.278133 0.406024 0.950499 -0.176403
C92   C     C_R   0.278093 0.934933 0.408917 -0.209021
C93   C     C_R   0.721837 0.051132 0.589704 -0.187523
C94   C     C_R   0.412074 0.280812 0.934890 -0.188356
C95   C     C_R   0.590335 0.719749 0.062384 -0.098894
C96   C     C_R   0.963099 0.396904 0.275927 -0.191896
C97   C     C_R   0.057583 0.588691 0.722192 -0.125454
C98   C     C_R   0.673608 0.064283 0.673027 0.461428
C99   C     C_R   0.651671 0.057144 0.399174 0.539626
C100  C     C_R   0.318185 0.936686 0.319102 0.458672
C101  C     C_R   0.070757 0.672759 0.674166 0.369162
C102  C     C_R   0.926418 0.324814 0.324114 0.383155
C103  C     C_R   0.677434 0.675140 0.068682 0.379770
C104  C     C_R   0.327811 0.328606 0.920314 0.376153
C105  C     C_R   0.599426 0.010463 0.589561 0.064871
C106  C     C_R   0.398698 0.977211 0.409956 0.066983
C107  C     C_R   0.012277 0.588352 0.602934 0.006848
C108  C     C_R   0.960980 0.406282 0.418553 -0.004856
C109  C     C_R   0.596604 0.599688 0.010890 -0.018548
C110  C     C_R   0.606450 0.365270 0.893209 0.453091
C111  C     C_R   0.418262 0.410296 0.960081 -0.007559
C112  C     C_3   0.303472 0.022389 0.742459 -0.238590
C113  C     C_3   0.472623 0.240131 0.317180 -0.276199
C114  C     C_3   0.957520 0.814392 0.321743 -0.301652
C115  C     C_3   0.954813 0.197033 0.722628 -0.199167
C116  C     C_3   0.762324 0.303771 0.012909 -0.254280
C117  C     C_3   0.291687 0.540025 0.195475 -0.291872
C118  C     C_3   0.459532 0.746152 0.658476 -0.351523
C119  C     C_3   0.731069 0.977820 0.295278 -0.239119
C120  C     C_3   0.677253 0.438045 0.750606 -0.302519
H1    H     H_    0.297158 0.062618 0.672616 0.140690
H2    H     H_    0.927220 0.160039 0.704123 0.116131
H3    H     H_    0.942389 0.168685 0.797260 0.166008
H4    H     H_    0.029287 0.179671 0.690477 0.187711
H5    H     H_    0.694518 0.293669 0.052092 0.199874
H6    H     H_    0.786294 0.323954 0.052336 0.160214
H7    H     H_    0.810421 0.236958 0.003083 0.183665
H8    H     H_    0.360017 0.536596 0.191561 0.155283
H9    H     H_    0.286588 0.469472 0.218811 0.160963
H10   H     H_    0.241924 0.574430 0.247744 0.215231
H11   H     H_    0.523284 0.764998 0.630180 0.159167
H12   H     H_    0.322350 0.060274 0.769441 0.155216
H13   H     H_    0.454239 0.718263 0.611867 0.153044
H14   H     H_    0.463038 0.690733 0.723277 0.184200
H15   H     H_    0.779605 0.934729 0.336503 0.148709
H16   H     H_    0.769947 0.984788 0.222883 0.179636
H17   H     H_    0.680706 0.943005 0.312081 0.145064
H18   H     H_    0.648114 0.505426 0.764546 0.151215
H19   H     H_    0.633840 0.431044 0.720391 0.135503
H20   H     H_    0.744143 0.436824 0.699489 0.208620
H21   H     H_    0.418521 0.749648 0.867463 0.168817
H22   H     H_    0.298087 0.803530 0.884732 0.238314
H23   H     H_    0.235920 0.014915 0.786514 0.186759
H24   H     H_    0.348311 0.683994 0.894646 0.128940
H25   H     H_    0.932687 0.718588 0.227711 0.184743
H26   H     H_    0.024096 0.658307 0.151328 0.112553
H27   H     H_    0.033309 0.753855 0.162827 0.175650
H28   H     H_    0.028841 0.211385 0.844843 0.162049
H29   H     H_    0.932201 0.310574 0.829869 0.251279
H30   H     H_    0.026304 0.316369 0.848514 0.126829
H31   H     H_    0.642767 0.226692 0.563898 0.121127
H32   H     H_    0.616640 0.280990 0.646026 0.208043
H33   H     H_    0.545555 0.217093 0.663709 0.110640
H34   H     H_    0.465816 0.220788 0.390720 0.136501
H35   H     H_    0.266312 0.914282 0.171889 0.158765
H36   H     H_    0.214672 0.003694 0.224911 0.133072
H37   H     H_    0.180006 0.899737 0.274416 0.151895
H38   H     H_    0.241896 0.626263 0.628695 0.115465
H39   H     H_    0.204938 0.576489 0.751571 0.189216
H40   H     H_    0.249352 0.669009 0.705720 0.227594
H41   H     H_    0.778061 0.321475 0.252437 0.208914
H42   H     H_    0.760125 0.337097 0.358497 0.143748
H43   H     H_    0.797303 0.418919 0.250723 0.145449
H44   H     H_    0.687031 0.795282 0.150434 0.182324
H45   H     H_    0.405592 0.258580 0.306685 0.148593
H46   H     H_    0.766829 0.769340 0.045862 0.162108
H47   H     H_    0.793974 0.709668 0.151795 0.161301
H48   H     H_    0.361310 0.344165 0.752886 0.170178
H49   H     H_    0.314839 0.255252 0.776113 0.158608
H50   H     H_    0.412654 0.225562 0.807871 0.151344
H51   H     H_    0.569970 0.832341 0.844259 0.026851
H52   H     H_    0.394122 0.156881 0.159540 0.001115
H53   H     H_    0.818018 0.848433 0.482669 0.069478
H54   H     H_    0.791023 0.257378 0.679247 0.121052
H55   H     H_    0.870662 0.469328 0.830803 0.083690
H56   H     H_    0.495555 0.302157 0.282795 0.191728
H57   H     H_    0.175780 0.666152 0.994204 0.078196
H58   H     H_    0.232716 0.808308 0.574540 0.040048
H59   H     H_    0.762318 0.176166 0.418125 0.040292
H60   H     H_    0.687736 0.212536 0.835224 0.098571
H61   H     H_    0.313492 0.779552 0.135667 0.075340
H62   H     H_    0.143913 0.539383 0.159396 0.129732
H63   H     H_    0.172271 0.314222 0.758486 0.093103
H64   H     H_    0.032802 0.787204 0.302295 0.202251
H65   H     H_    0.935792 0.867082 0.355916 0.139372
H66   H     H_    0.936118 0.850862 0.258613 0.161364
O1    O     O_R   0.982940 0.138950 0.510160 -0.642274
O2    O     O_R   0.982940 0.510160 0.138950 -0.670254
O3    O     O_R   0.861050 0.017060 0.489840 -0.649745
O4    O     O_R   0.138950 0.982940 0.510160 -0.623494
O5    O     O_R   0.867700 0.025880 0.612340 -0.591017
O6    O     O_R   0.132300 0.974120 0.387660 -0.639146
O7    O     O_R   0.025880 0.612340 0.867700 -0.575760
O8    O     O_R   0.974120 0.387660 0.132300 -0.574942
O9    O     O_R   0.612340 0.867700 0.025880 -0.663123
O10   O     O_R   0.387660 0.132300 0.974120 -0.607718
O11   O     O_R   0.387660 0.974120 0.132300 -0.616675
O12   O     O_R   0.017060 0.861050 0.489840 -0.667406
O13   O     O_R   0.612340 0.025880 0.867700 -0.568166
O14   O     O_R   0.132300 0.387660 0.974120 -0.577132
O15   O     O_R   0.867700 0.612340 0.025880 -0.630908
O16   O     O_R   0.974120 0.132300 0.387660 -0.579584
O17   O     O_R   0.025880 0.867700 0.612340 -0.566216
O18   O     O_3   0.365857 0.934264 0.744744 -0.552365
O19   O     O_3   0.537608 0.169868 0.278713 -0.520269
O20   O     O_3   0.916785 0.742923 0.374585 -0.617172
O21   O     O_3   0.912514 0.293621 0.700621 -0.584792
O22   O     O_3   0.761262 0.368349 0.926863 -0.591973
O23   O     O_R   0.138950 0.510160 0.982940 -0.644838
O24   O     O_3   0.270902 0.591661 0.111940 -0.600707
O25   O     O_3   0.383128 0.821181 0.676539 -0.541817
O26   O     O_3   0.688180 0.065997 0.307129 -0.521288
O27   O     O_3   0.689961 0.364707 0.829520 -0.562407
O28   O     O_3   0.334341 0.723963 0.003272 -0.611139
O29   O     O_3   0.048554 0.639154 0.273274 -0.601135
O30   O     O_3   0.047897 0.306384 0.718186 -0.615691
O31   O     O_3   0.672447 0.139544 0.687932 -0.550233
O32   O     O_3   0.303927 0.880141 0.287560 -0.564738
O33   O     O_3   0.119361 0.704995 0.697384 -0.571156
O34   O     O_R   0.861050 0.489840 0.017060 -0.659367
O35   O     O_3   0.894579 0.291783 0.283824 -0.563384
O36   O     O_3   0.698753 0.671341 0.141996 -0.607803
O37   O     O_3   0.289335 0.293705 0.887995 -0.569084
O38   O     O_2   0.435031 0.873254 0.884830 -0.537965
O39   O     O_2   0.502425 0.192538 0.131817 -0.535692
O40   O     O_2   0.834842 0.831721 0.598653 -0.584411
O41   O     O_2   0.789690 0.249297 0.566141 -0.622396
O42   O     O_2   0.841702 0.597961 0.827154 -0.599808
O43   O     O_2   0.224484 0.633842 0.878775 -0.572531
O44   O     O_2   0.213238 0.834905 0.686983 -0.493930
O45   O     O_R   0.510160 0.982940 0.138950 -0.641604
O46   O     O_2   0.792740 0.143291 0.306627 -0.527299
O47   O     O_2   0.578970 0.219807 0.811985 -0.599308
O48   O     O_2   0.408942 0.752566 0.191068 -0.543915
O49   O     O_2   0.155349 0.408820 0.191676 -0.613468
O50   O     O_2   0.199863 0.425193 0.739681 -0.633126
O51   O     O_R   0.489840 0.017060 0.861050 -0.628416
O52   O     O_R   0.489840 0.861050 0.017060 -0.591765
O53   O     O_R   0.510160 0.138950 0.982940 -0.601222
O54   O     O_R   0.017060 0.489840 0.861050 -0.652165
Zn1   Zn    Zn3+2 0.004880 0.004880 0.583590 1.020462
Zn2   Zn    Zn3+2 0.995120 0.995120 0.416410 0.968336
Zn3   Zn    Zn3+2 0.004880 0.583590 0.004880 0.966335
Zn4   Zn    Zn3+2 0.995120 0.416410 0.995120 0.986108
Zn5   Zn    Zn3+2 0.583590 0.004880 0.004880 0.978007
Zn6   Zn    Zn3+2 0.416410 0.995120 0.995120 1.008573

loop_
_geom_bond_atom_site_label_1
_geom_bond_atom_site_label_2
_ccdc_geom_bond_type
C61   C70   A    
C30   O45   A    
C48   C110  A    
C32   C95   S    
C16   O41   D    
C24   C61   A    
C31   C85   S    
C115  H3    S    
C96   C102  A    
C89   C102  A    
C59   C99   A    
C37   O3    A    
C3    H21   S    
C3    H22   S    
C113  H34   S    
O1    Zn1   S    
C8    H38   S    
O23   Zn3   S    
C31   O13   A    
C72   C85   A    
C60   C88   A    
C19   C46   S    
C5    H29   S    
C40   C73   A    
C26   C89   S    
O9    Zn5   S    
C33   O19   S    
C119  O26   S    
C28   O14   A    
C114  H65   S    
O8    Zn4   S    
C54   C107  A    
C27   O17   A    
C84   C97   A    
C112  H23   S    
C117  O24   S    
C26   O16   A    
C22   H61   S    
C115  O21   S    
C103  O36   S    
C113  H45   S    
C46   C79   A    
C17   O42   D    
C66   C69   A    
C4    H25   S    
C34   O10   A    
O16   Zn2   S    
C38   C92   S    
O11   Zn6   S    
O54   Zn4   S    
C84   C107  A    
C47   C99   A    
C83   C108  A    
C44   C71   A    
C9    H43   S    
C101  O33   S    
C12   O38   D    
C118  H11   S    
C4    O29   S    
C41   C74   A    
C87   C101  A    
C7    O32   S    
C53   C106  A    
C21   H60   S    
C21   O47   D    
C7    H36   S    
C81   C111  A    
C60   C67   A    
C10   H47   S    
C38   O4    A    
C88   O25   S    
C113  O19   S    
C62   C71   A    
C24   O30   S    
C39   C72   A    
C78   C111  A    
C85   C98   A    
C74   C87   A    
C12   H51   S    
C53   C65   A    
C91   C104  A    
C104  O37   S    
C45   C78   A    
C74   C107  A    
C118  H14   S    
O5    Zn1   S    
C21   C48   S    
C23   O49   D    
C24   C51   A    
C31   O51   A    
C100  O32   S    
C75   C108  A    
C5    H28   S    
C116  H6    S    
C2    C49   A    
O7    Zn3   S    
O45   Zn5   S    
C27   O12   A    
C93   C98   A    
C47   C80   A    
C32   O9    A    
C29   C90   S    
C19   O44   D    
C53   C60   A    
C95   C103  A    
C50   C83   A    
C57   C63   A    
C20   H59   S    
C46   C88   A    
C99   O26   S    
C29   O34   A    
C58   C64   A    
C73   C86   A    
C57   C109  A    
C33   C40   A    
O6    Zn2   S    
C15   H53   S    
C15   O40   D    
C33   C65   A    
C58   C111  A    
C6    H33   S    
C82   C109  A    
C110  O27   S    
C29   O15   A    
C81   C94   A    
C15   C41   S    
C23   H62   S    
C14   H52   S    
C11   O37   S    
C10   O36   S    
C18   H57   S    
C76   C109  A    
C23   C50   S    
C28   O23   A    
C4    H27   S    
C14   C40   S    
C80   C105  A    
C116  H7    S    
O12   Zn2   S    
C5    H30   S    
C114  O20   S    
C79   C106  A    
C118  O25   S    
C3    O28   S    
C119  H17   S    
C49   C82   A    
C9    H41   S    
C17   C43   S    
C34   O53   A    
C52   C59   A    
C42   C55   A    
C6    O31   S    
C66   O22   S    
C26   O1    A    
C36   C96   S    
C1    C39   A    
C64   C110  A    
C10   H46   S    
C4    H26   S    
O52   Zn6   S    
C44   O20   S    
C42   C75   A    
C37   C93   S    
C120  H19   S    
C64   C69   A    
C112  H12   S    
C27   C87   S    
C117  H10   S    
C118  H13   S    
C19   H58   S    
C79   C92   A    
C116  O22   S    
C52   C67   A    
C25   H63   S    
C77   O24   S    
C14   O39   D    
C22   C49   S    
C120  H20   S    
C6    H31   S    
C13   C62   A    
C58   C68   A    
C37   O5    A    
C52   C105  A    
C2    O28   S    
C38   O6    A    
C20   O46   D    
C113  H56   S    
C11   H48   S    
C41   C44   A    
C56   C62   A    
C98   O31   S    
C30   C86   S    
C112  O18   S    
C8    H40   S    
C18   C45   S    
C16   C42   S    
O4    Zn1   S    
C115  H4    S    
C117  H9    S    
C2    C63   A    
C92   C100  A    
C16   H54   S    
C68   C77   A    
O14   Zn4   S    
C63   C68   A    
C10   H44   S    
C82   C95   A    
O10   Zn6   S    
C35   O7    A    
C3    H24   S    
C34   C94   S    
O34   Zn4   S    
C18   O43   D    
O15   Zn3   S    
C11   H49   S    
O17   Zn1   S    
C54   C61   A    
C78   C91   A    
C55   O21   S    
C56   C70   A    
C25   C51   S    
C114  H66   S    
O53   Zn5   S    
C116  H5    S    
C57   C69   A    
C13   O29   S    
C12   C39   S    
C48   C81   A    
C120  O27   S    
C6    H32   S    
C112  H1    S    
C8    O33   S    
C59   C65   A    
C119  H16   S    
C86   C100  A    
C5    O30   S    
C73   C106  A    
C8    H39   S    
C32   O52   A    
C43   C66   A    
C114  H64   S    
C83   C96   A    
C54   C71   A    
C1    C67   A    
C7    H35   S    
O51   Zn6   S    
C35   O54   A    
C28   C91   S    
C22   O48   D    
C9    H42   S    
C117  H8    S    
C36   O8    A    
C90   C103  A    
C119  H15   S    
C55   C70   A    
O13   Zn5   S    
C94   C104  A    
C13   C50   A    
C9    O35   S    
C30   O11   A    
C120  H18   S    
C72   C105  A    
C11   H50   S    
C7    H37   S    
C75   C89   A    
O3    Zn2   S    
C115  H2    S    
C56   C108  A    
C43   C76   A    
O2    Zn3   S    
C45   C77   A    
C36   O2    A    
C80   C93   A    
C35   C97   S    
C1    O18   S    
C51   C84   A    
C25   O50   D    
C97   C101  A    
C20   C47   S    
C17   H55   S    
C102  O35   S    
C76   C90   A    
