data_str_m3_o10_o17_f0_pcu.sym.188
_audit_creation_date              2012-12-10T16:52:05-0500
_audit_creation_method            fapswitch 2.2
_symmetry_space_group_name_H-M    P1
_symmetry_Int_Tables_number       1
_space_group_crystal_system       triclinic
_cell_length_a                    7.774958
_cell_length_b                    8.56
_cell_length_c                    14.877148
_cell_angle_alpha                 90.951454
_cell_angle_beta                  86.045916
_cell_angle_gamma                 93.679475
_cell_volume                      985.661594527

loop_
_atom_site_label
_atom_site_type_symbol
_atom_type_description
_atom_site_fract_x
_atom_site_fract_y
_atom_site_fract_z
_atom_type_partial_charge
C1    C     C_R   0.545775 0.794688 0.497821 0.992719
C2    C     C_R   0.454225 0.205312 0.502179 0.992720
C3    C     C_R   0.581763 0.778683 0.950272 -0.203161
C4    C     C_R   0.418237 0.221317 0.049728 -0.203161
C5    C     C_2   0.569848 0.958249 0.496425 -0.298254
C6    C     C_2   0.430152 0.041751 0.503574 -0.298254
C7    C     C_R   0.502293 0.498909 0.672625 0.963740
C8    C     C_R   0.497707 0.501091 0.327374 0.963740
C9    C     C_R   0.453275 0.365544 0.187851 -0.308806
C10   C     C_R   0.546725 0.634456 0.812149 -0.308806
C11   C     C_R   0.493021 0.505560 0.232411 -0.124766
C12   C     C_R   0.506979 0.494440 0.767589 -0.124767
C13   C     C_R   0.533628 0.646335 0.186955 0.311316
C14   C     C_R   0.466372 0.353665 0.813045 0.311316
C15   C     C_R   0.536561 0.645291 0.092909 0.046331
C16   C     C_R   0.463439 0.354709 0.907091 0.046331
C17   C     C_R   0.498031 0.501983 0.046982 0.025386
C18   C     C_R   0.501969 0.498017 0.953018 0.025386
C19   C     C_R   0.455831 0.362337 0.094994 0.139887
C20   C     C_R   0.544169 0.637663 0.905006 0.139887
C21   C     C_R   0.578025 0.782726 0.043589 -0.164365
C22   C     C_R   0.421975 0.217274 0.956411 -0.164365
H1    H     H_    0.422861 0.258877 0.225834 0.170352
H2    H     H_    0.577139 0.741123 0.774166 0.170352
H3    H     H_    0.608319 0.893979 0.076221 0.201319
H4    H     H_    0.391681 0.106021 0.923779 0.201319
H5    H     H_    0.614126 0.885977 0.913421 0.169276
H6    H     H_    0.385874 0.114023 0.086579 0.169276
H7    H     H_    0.701759 0.009371 0.489422 0.180549
H8    H     H_    0.298241 0.990629 0.510578 0.180549
H9    H     H_    0.013583 0.382647 0.432140 0.197384
H10   H     H_    0.986417 0.617353 0.567860 0.197384
N1    N     N_2   0.950330 0.457950 0.475660 -0.164977
N2    N     N_2   0.049670 0.542050 0.524340 -0.164977
O1    O     O_R   0.389250 0.738570 0.505970 -0.616289
O2    O     O_R   0.610750 0.261430 0.494030 -0.616289
O3    O     O_R   0.678390 0.711620 0.490370 -0.624343
O4    O     O_R   0.321610 0.288380 0.509630 -0.624343
O5    O     O_R   0.355420 0.513510 0.639950 -0.598243
O6    O     O_R   0.644580 0.486490 0.360050 -0.598243
O7    O     O_R   0.644560 0.486560 0.624350 -0.622765
O8    O     O_R   0.355440 0.513440 0.375650 -0.622765
Zn1   Zn    Zn3+2 0.306940 0.517990 0.510420 0.993574
Zn2   Zn    Zn3+2 0.693060 0.482010 0.489580 0.993574
Cl1   Cl    Cl    0.580297 0.820997 0.248962 -0.665865
Cl2   Cl    Cl    0.419703 0.179003 0.751038 -0.665865

loop_
_geom_bond_atom_site_label_1
_geom_bond_atom_site_label_2
_ccdc_geom_bond_type
O5    Zn1   S    
H9    N1    S    
C4    C22   A    
C2    O4    A    
O6    Zn2   S    
C18   C20   A    
C1    O3    A    
C9    C11   A    
C10   H2    S    
O3    Zn2   S    
C3    H5    S    
C17   C18   A    
O4    Zn1   S    
C14   Cl2   S    
C6    H8    S    
C13   Cl1   S    
C11   C13   A    
C2    C6    S    
C15   C21   A    
C10   C12   A    
C8    C11   S    
C1    C5    S    
C7    O5    A    
C17   C19   A    
C12   C14   A    
N1    N2    D    
C5    H7    S    
C13   C15   A    
C5    C6    D    
O7    Zn2   S    
C14   C16   A    
C7    C12   S    
C3    C21   A    
O2    Zn2   S    
O8    Zn1   S    
C8    O8    A    
C3    C20   A    
O1    Zn1   S    
C1    O1    A    
C16   C18   A    
C22   H4    S    
C2    O2    A    
C15   C17   A    
C21   H3    S    
C9    H1    S    
C16   C22   A    
C8    O6    A    
C4    H6    S    
C4    C19   A    
C9    C19   A    
N2    Zn1   S    
C7    O7    A    
C10   C20   A    
N1    Zn2   S    
H10   N2    S    
