data_str_m3_o14_o14_f0_pcu.sym.164
_audit_creation_date              2013-03-05T15:52:19-0500
_audit_creation_method            fapswitch 2.2
_symmetry_space_group_name_H-M    P1
_symmetry_Int_Tables_number       1
_space_group_crystal_system       triclinic
_cell_length_a                    14.885742
_cell_length_b                    15.206955
_cell_length_c                    9.937674
_cell_angle_alpha                 89.760698
_cell_angle_beta                  90.033118
_cell_angle_gamma                 89.819787
_cell_volume                      2249.52840856

loop_
_atom_site_label
_atom_site_type_symbol
_atom_site_description
_atom_site_fract_x
_atom_site_fract_y
_atom_site_fract_z
_atom_type_partial_charge
O1    O     O_R   0.408390 0.908380 0.614690 -0.645710
O2    O     O_R   0.408390 0.091620 0.614690 -0.624011
O3    O     O_R   0.908390 0.408380 0.614690 -0.645281
O4    O     O_R   0.908390 0.591620 0.614690 -0.623394
O5    O     O_R   0.408370 0.908380 0.385360 -0.628565
O6    O     O_R   0.408370 0.091620 0.385360 -0.634470
O7    O     O_R   0.908370 0.408380 0.385360 -0.628046
O8    O     O_R   0.908370 0.591620 0.385360 -0.637144
C1    C     C_R   0.383347 0.877441 0.500421 0.852882
C2    C     C_R   0.381248 0.120465 0.499808 0.857258
C3    C     C_R   0.883351 0.377430 0.500426 0.850493
C4    C     C_R   0.881677 0.620907 0.499813 0.856585
Zn1   Zn    Zn3+2 0.500010 1.000000 0.653130 0.931408
Zn2   Zn    Zn3+2 0.000010 0.500000 0.653130 0.931944
Zn3   Zn    Zn3+2 0.499980 0.000000 0.346870 0.936785
Zn4   Zn    Zn3+2 0.999980 0.500000 0.346870 0.936253
O9    O     O_R   0.591620 0.091610 0.614640 -0.611627
O10   O     O_R   0.591620 0.908390 0.614640 -0.630134
O11   O     O_R   0.091620 0.591610 0.614640 -0.612252
O12   O     O_R   0.091620 0.408390 0.614640 -0.629644
O13   O     O_R   0.591610 0.091610 0.385310 -0.623793
O14   O     O_R   0.591610 0.908390 0.385310 -0.610551
O15   O     O_R   0.091610 0.591610 0.385310 -0.624587
O16   O     O_R   0.091610 0.408390 0.385310 -0.609287
C5    C     C_R   0.622830 0.116553 0.499714 0.838838
C6    C     C_R   0.620878 0.881540 0.500165 0.843270
C7    C     C_R   0.122782 0.616616 0.499797 0.840758
C8    C     C_R   0.120365 0.381015 0.500051 0.842858
H1    H     H_    0.214379 0.102812 0.570119 0.135848
H2    H     H_    0.242488 0.868352 0.346139 0.159035
H3    H     H_    0.720326 0.608984 0.597169 0.139925
H4    H     H_    0.741537 0.369332 0.348132 0.157700
C9    C     C_R   0.432158 0.296634 0.420780 -0.173012
C10   C     C_R   0.413349 0.720119 0.666471 -0.191515
C11   C     C_R   0.928330 0.793172 0.395919 -0.174765
C12   C     C_R   0.914402 0.218968 0.663667 -0.192784
H5    H     H_    0.484823 0.247786 0.422974 0.135270
H6    H     H_    0.466183 0.768319 0.669990 0.161285
H7    H     H_    0.980932 0.744254 0.396049 0.141228
H8    H     H_    0.966977 0.267466 0.667910 0.161659
C13   C     C_R   0.454168 0.382066 0.381375 -0.144746
C14   C     C_R   0.424982 0.644474 0.744268 -0.142926
C15   C     C_R   0.948471 0.876870 0.346772 -0.143761
C16   C     C_R   0.926921 0.142346 0.738984 -0.145453
H9    H     H_    0.522520 0.397812 0.353238 0.135247
H10   H     H_    0.484440 0.636841 0.805981 0.134201
H11   H     H_    0.015188 0.891033 0.309478 0.133987
H12   H     H_    0.986910 0.134098 0.799451 0.140749
C17   C     C_R   0.882970 0.942401 0.346701 -0.120568
C18   C     C_R   0.863181 0.075823 0.734656 -0.125863
C19   C     C_R   0.388202 0.447164 0.378530 -0.117171
C20   C     C_R   0.360992 0.578207 0.740990 -0.124438
H13   H     H_    0.898777 0.007488 0.309227 0.142207
H14   H     H_    0.873705 0.015756 0.791445 0.138528
H15   H     H_    0.405257 0.513474 0.348046 0.143800
H16   H     H_    0.370838 0.518842 0.799746 0.139425
C21   C     C_R   0.797210 0.924406 0.395931 -0.195638
C22   C     C_R   0.786358 0.085983 0.655855 -0.189834
C23   C     C_R   0.300246 0.427070 0.415742 -0.197155
C24   C     C_R   0.284813 0.587676 0.660668 -0.191784
H17   H     H_    0.748610 0.977370 0.395746 0.136469
H18   H     H_    0.740322 0.031260 0.652173 0.146923
H19   H     H_    0.251015 0.479430 0.412719 0.133012
H20   H     H_    0.238724 0.533009 0.658025 0.149288
C25   C     C_R   0.775915 0.839845 0.446373 0.088522
C26   C     C_R   0.771740 0.163995 0.580488 0.096904
C27   C     C_R   0.277221 0.340927 0.457113 0.086830
C28   C     C_R   0.271013 0.664771 0.582697 0.094975
C29   C     C_R   0.343381 0.275217 0.458304 0.101362
C30   C     C_R   0.336208 0.731286 0.584655 0.103737
C31   C     C_R   0.841824 0.773856 0.446075 0.102483
C32   C     C_R   0.836770 0.230675 0.583064 0.105695
C33   C     C_R   0.318542 0.189908 0.499330 -0.077076
C34   C     C_R   0.322932 0.805651 0.500808 -0.097400
C35   C     C_R   0.819361 0.690785 0.499571 -0.085105
C36   C     C_R   0.822864 0.305686 0.500789 -0.093982
C37   C     C_R   0.232078 0.169244 0.540650 -0.224917
C38   C     C_R   0.250953 0.812047 0.412123 -0.220599
C39   C     C_R   0.735999 0.673184 0.555944 -0.216257
C40   C     C_R   0.750375 0.312607 0.413124 -0.221209
H21   H     H_    0.606454 0.722973 0.598469 0.139626
H22   H     H_    0.630405 0.255210 0.343790 0.155129
H23   H     H_    0.100217 0.217138 0.572351 0.137661
H24   H     H_    0.131302 0.754395 0.342333 0.153732
C41   C     C_R   0.671796 0.737543 0.556640 -0.198847
C42   C     C_R   0.687131 0.248059 0.411238 -0.211851
C43   C     C_R   0.167777 0.233666 0.541615 -0.201153
C44   C     C_R   0.187664 0.747562 0.410490 -0.208912
C45   C     C_R   0.691063 0.819245 0.500600 -0.089490
C46   C     C_R   0.695384 0.176565 0.498189 -0.102824
C47   C     C_R   0.190049 0.318185 0.499744 -0.082833
C48   C     C_R   0.195338 0.676635 0.498637 -0.104153
H25   H     H_    0.640665 0.999250 0.125075 0.143991
H26   H     H_    0.140656 0.500199 0.125066 0.144788
C49   C     C_R   0.336033 0.001348 0.139390 -0.219403
C50   C     C_R   0.835973 0.500813 0.139402 -0.216167
H27   H     H_    0.332574 0.001395 0.246008 0.217674
H28   H     H_    0.832306 0.501552 0.246024 0.217318
C51   C     C_R   0.253871 0.002183 0.070846 0.217593
C52   C     C_R   0.753958 0.500299 0.070578 0.206986
C53   C     C_R   0.253796 0.000886 0.929447 0.214886
C54   C     C_R   0.753926 0.497669 0.929514 0.205450
C55   C     C_R   0.335794 0.000415 0.860671 -0.220325
C56   C     C_R   0.835860 0.498480 0.860536 -0.209961
H29   H     H_    0.331658 0.999908 0.753890 0.223715
H30   H     H_    0.832055 0.498671 0.753864 0.218228
C57   C     C_R   0.419066 0.000311 0.927945 0.125065
C58   C     C_R   0.919076 0.499582 0.927923 0.123446
C59   C     C_R   0.419132 0.000462 0.071959 0.125352
C60   C     C_R   0.919121 0.500022 0.071986 0.125604
N1    N     N_R   0.498810 0.000000 0.142780 -0.109530
N2    N     N_R   0.998810 0.500000 0.142780 -0.109853
C61   C     C_R   0.577365 0.999588 0.071500 -0.096719
C62   C     C_R   0.077359 0.500119 0.071497 -0.096452
H31   H     H_    0.640606 0.999351 0.875052 0.140377
H32   H     H_    0.140597 0.500429 0.875081 0.139416
C63   C     C_R   0.577328 0.999638 0.928532 -0.097550
C64   C     C_R   0.077321 0.500245 0.928538 -0.096418
N3    N     N_R   0.498740 0.000000 0.857170 -0.110090
N4    N     N_R   0.998740 0.500000 0.857170 -0.110295
C65   C     C_3   0.168467 0.000923 0.847110 -0.930356
H33   H     H_    0.106784 0.993490 0.908230 0.252831
H34   H     H_    0.163100 0.063776 0.790630 0.235578
H35   H     H_    0.170192 0.945661 0.774383 0.243394
C66   C     C_3   0.667136 0.494214 0.851207 -0.908919
H36   H     H_    0.678942 0.487687 0.741414 0.223331
H37   H     H_    0.627055 0.436500 0.883784 0.253566
H38   H     H_    0.627845 0.555260 0.868395 0.238790
C67   C     C_3   0.167713 0.005407 0.150694 -0.942432
H39   H     H_    0.180246 0.010109 0.260628 0.225702
H40   H     H_    0.127735 0.064066 0.120692 0.256877
H41   H     H_    0.128171 0.944847 0.132409 0.240143
C68   C     C_3   0.667176 0.502601 0.149066 -0.931984
H42   H     H_    0.678997 0.508479 0.259023 0.222586
H43   H     H_    0.626212 0.560159 0.117226 0.255414
H44   H     H_    0.628676 0.441340 0.131239 0.243093

loop_
_geom_bond_atom_site_label_1
_geom_bond_atom_site_label_2
_geom_bond_distance
_ccdc_geom_bond_type
C22   H18   1.080407 S    
H23   C43   1.081273 S    
C43   C47   1.390463 A    
C58   N4    1.379003 A    
O10   C6    1.286039 A    
C39   C41   1.365831 A    
C32   C36   1.415297 A    
C54   C66   1.508982 S    
C56   H30   1.061546 S    
H26   C62   1.081958 S    
C26   C46   1.411946 A    
C6    C45   1.408075 S    
C25   C45   1.409175 A    
C5    C46   1.416192 S    
C18   H14   1.082620 S    
Zn1   O10   1.984892 S    
C67   H39   1.110827 S    
C3    C36   1.416741 S    
C63   N3    1.367646 A    
C2    C33   1.407202 S    
C49   C51   1.399587 A    
C38   C44   1.362117 A    
C17   C21   1.394900 A    
C14   H10   1.082156 S    
C57   N3    1.379234 A    
C21   H17   1.080923 S    
O2    Zn1   1.982459 S    
C65   H35   1.110944 S    
C40   C42   1.362388 A    
C20   C24   1.393112 A    
C23   C27   1.414576 A    
O6    Zn3   1.984998 S    
C22   C26   1.416486 A    
Zn3   O14   1.982454 S    
C26   C32   1.404377 A    
C12   C32   1.416031 A    
C44   C48   1.391029 A    
C58   C60   1.431696 A    
C10   C14   1.393610 A    
H31   C63   1.081793 S    
C50   H28   1.061114 S    
Zn4   O16   1.982454 S    
C30   C34   1.415182 A    
C68   H44   1.110099 S    
C29   C33   1.408788 A    
O15   C7    1.287817 A    
O4    C4    1.286022 A    
O11   C7    1.288557 A    
C10   C30   1.415994 A    
C34   C38   1.389873 A    
C9    C29   1.412007 A    
C67   H41   1.110082 S    
C11   C31   1.412371 A    
O8    Zn4   1.984998 S    
C57   C59   1.431180 A    
N2    C62   1.367457 A    
Zn1   N3    2.027782 S    
O7    C3    1.290301 A    
C60   N2    1.378808 A    
O5    Zn3   1.988774 S    
C51   C67   1.509324 S    
C18   C22   1.393451 A    
Zn3   N1    2.028245 S    
C12   H8    1.077982 S    
O1    C1    1.286437 A    
C55   H29   1.062964 S    
C49   C59   1.407230 A    
C41   C45   1.390216 A    
C15   C17   1.391995 A    
O12   C8    1.287062 A    
C25   C31   1.401220 A    
C50   C60   1.407794 A    
C53   C65   1.510534 S    
C27   C29   1.400806 A    
H24   C44   1.082435 S    
C11   H7    1.078341 S    
O5    C1    1.290209 A    
C66   H37   1.110036 S    
Zn2   O12   1.984892 S    
H4    C40   1.083092 S    
O8    C4    1.285905 A    
C27   C47   1.408947 A    
H1    C37   1.083993 S    
C7    C48   1.416258 S    
N1    C61   1.367530 A    
H25   C61   1.081988 S    
C54   C56   1.399491 A    
C37   C43   1.367542 A    
C65   H33   1.107023 S    
C62   C64   1.420680 A    
O3    Zn2   1.990715 S    
C61   C63   1.420774 A    
C28   C30   1.404141 A    
O7    Zn4   1.988774 S    
C51   C53   1.405394 A    
Zn4   O15   1.990708 S    
Zn2   N4    2.027782 S    
C42   C46   1.391021 A    
C66   H36   1.110061 S    
C12   C16   1.394208 A    
O1    Zn1   1.990715 S    
C1    C34   1.416604 S    
O2    C2    1.285772 A    
C56   C58   1.408002 A    
C11   C15   1.394929 A    
C52   C68   1.509799 S    
Zn4   N2    2.028245 S    
O16   C8    1.284939 A    
C9    H5    1.078460 S    
C52   C54   1.402584 A    
C16   C18   1.389898 A    
O13   C5    1.287060 A    
C33   C37   1.387807 A    
C10   H6    1.077413 S    
Zn2   O11   1.988665 S    
C36   C40   1.389905 A    
C21   C25   1.415169 A    
O6    C2    1.285513 A    
C49   H27   1.060826 S    
H3    C39   1.083332 S    
C23   H19   1.080747 S    
Zn1   O9    1.988665 S    
C24   H20   1.079914 S    
C9    C13   1.395371 A    
C59   N1    1.378789 A    
O9    C5    1.289262 A    
H22   C42   1.082730 S    
C31   C35   1.409788 A    
C68   H42   1.110712 S    
C35   C39   1.388145 A    
C66   H38   1.109545 S    
C17   H13   1.082681 S    
C50   C52   1.399094 A    
C28   C48   1.412694 A    
H32   C64   1.081669 S    
C8    C47   1.408071 S    
C19   H15   1.082673 S    
O4    Zn2   1.982459 S    
C64   N4    1.367621 A    
C65   H34   1.109025 S    
O3    C3    1.286441 A    
H2    C38   1.083288 S    
C16   H12   1.082724 S    
Zn3   O13   1.990708 S    
C19   C23   1.395174 A    
C24   C28   1.416971 A    
C53   C55   1.399283 A    
O14   C6    1.285972 A    
C4    C35   1.408345 S    
C68   H43   1.110046 S    
C13   H9    1.082634 S    
C55   C57   1.408007 A    
C15   H11   1.082199 S    
C13   C19   1.392351 A    
H21   C41   1.081205 S    
C20   H16   1.082621 S    
C14   C20   1.389300 A    
C67   H40   1.110387 S    
