data_str_m9_o16_o23_f0_sra.sym.75
_audit_creation_date              2012-12-11T15:12:49-0500
_audit_creation_method            fapswitch 2.2
_symmetry_space_group_name_H-M    P1
_symmetry_Int_Tables_number       1
_space_group_crystal_system       triclinic
_cell_length_a                    22.337309
_cell_length_b                    6.946829
_cell_length_c                    19.450753
_cell_angle_alpha                 90.001943
_cell_angle_beta                  99.010691
_cell_angle_gamma                 90.0049
_cell_volume                      2980.99303854

loop_
_atom_site_label
_atom_site_type_symbol
_atom_type_description
_atom_site_fract_x
_atom_site_fract_y
_atom_site_fract_z
_atom_type_partial_charge
O1    O     O_R   0.448420 0.506120 0.415750 -0.533674
O2    O     O_R   0.551580 0.006120 0.584250 -0.534914
O3    O     O_R   0.436490 0.174470 0.555610 -0.535938
O4    O     O_R   0.563510 0.674470 0.444390 -0.535680
C1    C     C_R   0.421864 0.344453 0.576676 0.738699
C2    C     C_R   0.578133 0.844458 0.423314 0.740160
O5    O     O_R   0.441310 0.176330 0.414520 -0.539868
O6    O     O_R   0.558690 0.676330 0.585480 -0.540679
O7    O     O_R   0.556430 0.007110 0.442150 -0.530376
O8    O     O_R   0.443570 0.507110 0.557850 -0.531540
C3    C     C_R   0.426205 0.345306 0.388985 0.785523
C4    C     C_R   0.573783 0.845327 0.611022 0.782431
O9    O     O_3   0.537770 0.339560 0.509230 -0.368884
O10   O     O_3   0.462230 0.839560 0.490770 -0.368765
V1    V     V_3+5 0.492990 0.064280 0.498290 1.471561
V2    V     V_3+5 0.507010 0.564280 0.501710 1.470484
C5    C     C_R   0.871399 0.961810 0.695191 -0.139336
C6    C     C_R   0.128731 0.464514 0.304800 -0.064144
H1    H     H_    0.791952 0.950731 0.580697 0.170013
H2    H     H_    0.208219 0.455431 0.419239 0.170297
H3    H     H_    0.890008 0.980820 0.647384 0.153903
H4    H     H_    0.109769 0.484805 0.352324 0.175679
C7    C     C_R   0.886476 0.940905 0.820843 -0.061757
C8    C     C_R   0.113472 0.440930 0.179201 -0.107118
C9    C     C_R   0.591986 0.829342 0.737846 -0.230187
C10   C     C_R   0.407907 0.327426 0.262194 -0.225852
C11   C     C_R   0.628202 0.831733 0.803129 0.265131
C12   C     C_R   0.371651 0.328960 0.196932 0.264722
C13   C     C_R   0.690611 0.858913 0.808227 -0.143681
C14   C     C_R   0.309279 0.356949 0.191824 -0.144772
C15   C     C_R   0.718858 0.883343 0.748567 -0.008481
C16   C     C_R   0.281113 0.383142 0.251452 -0.006448
C17   C     C_R   0.681312 0.881258 0.681277 0.064719
C18   C     C_R   0.318706 0.382066 0.318724 0.066171
C19   C     C_R   0.783325 0.909631 0.754033 0.090949
C20   C     C_R   0.216677 0.410081 0.245977 0.088295
C21   C     C_R   0.808784 0.934420 0.692361 0.058207
C22   C     C_R   0.191309 0.436594 0.307645 0.023751
C23   C     C_R   0.771947 0.932068 0.627630 -0.192743
C24   C     C_R   0.228180 0.435388 0.372343 -0.192663
C25   C     C_R   0.709420 0.905697 0.621193 0.158745
C26   C     C_R   0.290678 0.408340 0.378782 0.162218
C27   C     C_R   0.823790 0.912482 0.818419 -0.254995
C28   C     C_R   0.176144 0.412021 0.181592 -0.225720
C29   C     C_R   0.910416 0.966412 0.758928 0.181433
C30   C     C_R   0.089850 0.467546 0.241399 0.170148
C31   C     C_R   0.617106 0.853756 0.677001 -0.112898
C32   C     C_R   0.382870 0.353589 0.323010 -0.116042
H5    H     H_    0.808397 0.894303 0.867783 0.104851
H6    H     H_    0.191487 0.392939 0.132241 0.106669
H7    H     H_    0.543498 0.807968 0.734285 0.103491
H8    H     H_    0.456360 0.305275 0.265763 0.110064
H9    H     H_    0.715679 0.860080 0.860196 0.128876
H10   H     H_    0.284169 0.357260 0.139873 0.129359
C33   C     C_3   0.811534 0.767079 0.267580 0.259102
C34   C     C_3   0.188969 0.266327 0.732901 0.255495
C35   C     C_3   0.780571 0.121613 0.241323 0.642837
C36   C     C_3   0.219555 0.621335 0.758788 0.645918
C37   C     C_3   0.731801 0.100891 0.291811 0.187329
C38   C     C_3   0.267804 0.600180 0.707708 0.198645
H11   H     H_    0.786203 0.803193 0.372203 0.257182
H12   H     H_    0.215114 0.296804 0.628447 0.258493
H13   H     H_    0.692076 0.193143 0.272688 0.126523
H14   H     H_    0.307021 0.695719 0.725327 0.110351
C39   C     C_1   0.624065 0.854789 0.378229 -0.161321
C40   C     C_1   0.376042 0.354765 0.621888 -0.171488
C41   C     C_3   0.792248 0.919516 0.208825 -0.026418
C42   C     C_3   0.207979 0.419384 0.791472 -0.052019
C43   C     C_3   0.764786 0.758690 0.319136 -0.374160
C44   C     C_3   0.236271 0.256191 0.682034 -0.343589
C45   C     C_3   0.709029 0.888178 0.293488 0.022932
C46   C     C_3   0.291567 0.388272 0.707232 -0.020406
C47   C     C_3   0.682693 0.821762 0.217894 0.004356
C48   C     C_3   0.317890 0.323485 0.783452 0.009242
C49   C     C_3   0.730865 0.845662 0.168130 -0.505912
C50   C     C_3   0.269282 0.346089 0.832493 -0.435265
C51   C     C_1   0.662316 0.867632 0.340331 0.102798
C52   C     C_1   0.337972 0.367642 0.660011 0.044199
C53   C     C_1   0.838099 0.931157 0.160551 0.154222
C54   C     C_1   0.161993 0.431099 0.839575 0.153969
C55   C     C_1   0.875685 0.940322 0.121695 -0.112757
C56   C     C_1   0.124349 0.440309 0.878355 -0.102884
H15   H     H_    0.737785 0.704245 0.143743 0.214513
H16   H     H_    0.262374 0.204527 0.856806 0.206756
H17   H     H_    0.714127 0.942599 0.123856 0.229771
H18   H     H_    0.285729 0.443208 0.876842 0.241362
H19   H     H_    0.671831 0.665427 0.220320 0.188122
H20   H     H_    0.329251 0.167487 0.781774 0.190553
H21   H     H_    0.812032 0.623770 0.242375 0.193988
H22   H     H_    0.187978 0.123477 0.758324 0.192783
H23   H     H_    0.749795 0.607066 0.323674 0.198622
H24   H     H_    0.251786 0.104637 0.678843 0.192820
O11   O     O_R   0.056480 0.288780 0.942210 -0.536852
O12   O     O_R   0.943520 0.788780 0.057790 -0.540674
O13   O     O_R   0.058700 0.616820 0.085490 -0.542094
O14   O     O_R   0.941300 0.116820 0.914510 -0.545363
C57   C     C_R   0.072911 0.448379 0.111630 0.687795
C58   C     C_R   0.927040 0.948355 0.888410 0.736660
O15   O     O_R   0.063520 0.618570 0.944410 -0.524599
O16   O     O_R   0.936480 0.118570 0.055590 -0.532038
O17   O     O_R   0.948420 0.787670 0.915740 -0.531305
O18   O     O_R   0.051580 0.287670 0.084260 -0.536990
C59   C     C_R   0.078868 0.449865 0.924015 0.717530
C60   C     C_R   0.921133 0.949863 0.075989 0.701462
O19   O     O_3   0.962260 0.453430 0.990800 -0.369791
O20   O     O_3   0.037740 0.953430 0.009200 -0.366121
V3    V     V_3+5 0.007000 0.728750 0.001710 1.489657
V4    V     V_3+5 0.993000 0.228750 0.998290 1.474331
N1    N     N_3   0.974482 0.994978 0.761212 -0.608067
H25   H     H_    0.985245 0.130897 0.782755 0.240124
H26   H     H_    0.985457 0.997989 0.710896 0.290051
N2    N     N_3   0.026355 0.497410 0.241476 -0.572336
H27   H     H_    0.012979 0.620949 0.212382 0.241675
H28   H     H_    0.002691 0.379867 0.217026 0.250748
Cl1   Cl    Cl    0.887238 0.794920 0.313344 -0.446592
Cl2   Cl    Cl    0.113628 0.295090 0.686240 -0.470894
Cl3   Cl    Cl    0.752517 0.289589 0.173487 -0.759563
Cl4   Cl    Cl    0.248268 0.789265 0.826389 -0.751382
Cl5   Cl    Cl    0.850549 0.228468 0.282630 -0.439508
Cl6   Cl    Cl    0.149453 0.728971 0.718208 -0.438335
Cl7   Cl    Cl    0.756648 0.190648 0.378668 -0.593433
Cl8   Cl    Cl    0.241571 0.684359 0.620384 -0.583457
N3    N     N_3   0.626020 0.922309 0.191056 -0.660149
H29   H     H_    0.635178 0.063200 0.177024 0.265700
H30   H     H_    0.605951 0.852795 0.145521 0.251971
N4    N     N_3   0.373905 0.424238 0.812902 -0.635482
H31   H     H_    0.366385 0.572055 0.815895 0.264194
H32   H     H_    0.407205 0.401702 0.781547 0.229668
N5    N     N_3   0.602163 0.807997 0.865572 -0.650988
H33   H     H_    0.555033 0.794940 0.853712 0.234232
H34   H     H_    0.618239 0.677873 0.888393 0.233283
N6    N     N_3   0.397607 0.303392 0.134520 -0.644555
H35   H     H_    0.444725 0.289899 0.146366 0.235330
H36   H     H_    0.381366 0.172989 0.112065 0.236022
N7    N     N_3   0.675329 0.903612 0.552533 -0.676917
H37   H     H_    0.682345 0.034475 0.528418 0.255619
H38   H     H_    0.692318 0.793415 0.524427 0.236141
N8    N     N_3   0.324821 0.407459 0.447419 -0.675747
H39   H     H_    0.317985 0.539037 0.471156 0.256916
H40   H     H_    0.307720 0.298263 0.475874 0.238069

loop_
_geom_bond_atom_site_label_1
_geom_bond_atom_site_label_2
_ccdc_geom_bond_type
C37   Cl7   S    
O15   C59   A    
C42   C54   S    
N4    H31   S    
C7    C29   A    
C30   N2    S    
C26   N8    S    
C45   C51   S    
O1    C3    A    
C36   Cl4   S    
O2    C4    A    
O11   C59   A    
C2    O7    A    
N2    H28   S    
N3    H29   S    
C23   C25   A    
O5    C3    A    
O19   V3    S    
C48   C50   S    
C16   C20   A    
C19   C21   A    
C5    C29   A    
N1    H26   S    
O11   V4    S    
H2    C24   S    
C29   N1    S    
N3    H30   S    
C11   C13   A    
O20   V3    S    
C38   C46   S    
C36   C38   S    
O16   C60   A    
C7    C27   A    
H12   C44   S    
C43   C45   S    
C47   H19   S    
C46   C52   S    
C49   H17   S    
C2    C39   S    
N6    H35   S    
C47   N3    S    
C18   C26   A    
C56   C59   S    
C15   C17   A    
O18   V4    S    
C19   C27   A    
C9    C31   A    
C57   O18   A    
C10   C32   A    
C35   Cl5   S    
O20   V4    S    
C24   C26   A    
O14   V4    S    
O12   C60   A    
O6    V2    S    
C22   C24   A    
C47   C49   S    
C50   H16   S    
C3    C32   S    
C35   C41   S    
C4    C31   S    
C6    C30   A    
N2    H27   S    
C40   C52   T    
O19   V4    S    
O12   V3    S    
O16   V4    S    
C39   C51   T    
C8    C57   S    
C49   H15   S    
N7    H37   S    
C41   C53   S    
C54   C56   T    
C53   C55   T    
C27   H5    S    
O5    V1    S    
C34   C42   S    
C5    H3    S    
O14   C58   A    
C12   N6    S    
C16   C18   A    
O4    V2    S    
C11   N5    S    
C9    H7    S    
C10   H8    S    
C21   C23   A    
C14   H10   S    
O6    C4    A    
C36   Cl6   S    
C34   Cl2   S    
O1    V2    S    
C5    C21   A    
C38   Cl8   S    
O2    V1    S    
C33   C43   S    
O13   V3    S    
N6    H36   S    
C46   C48   S    
C34   C44   S    
O9    V1    S    
C9    C11   A    
C8    C28   A    
O10   V2    S    
C20   C28   A    
O4    C2    A    
C41   C49   S    
C50   H18   S    
C25   N7    S    
O3    V1    S    
C35   Cl3   S    
N5    H33   S    
H11   C43   S    
N7    H38   S    
N4    H32   S    
C6    H4    S    
C37   H13   S    
C44   H24   S    
C1    C40   S    
O3    C1    A    
C33   C41   S    
O13   C57   A    
N8    H40   S    
C42   C50   S    
C58   O17   A    
O15   V3    S    
C10   C12   A    
C38   H14   S    
C8    C30   A    
C20   C22   A    
C6    C22   A    
C17   C25   A    
C12   C14   A    
C13   C15   A    
O8    V2    S    
N1    H25   S    
C14   C16   A    
C33   Cl1   S    
C36   C42   S    
C48   N4    S    
C13   H9    S    
C17   C31   A    
C34   H22   S    
C15   C19   A    
O7    V1    S    
C33   H21   S    
C35   C37   S    
N8    H39   S    
C1    O8    A    
C7    C58   S    
C18   C32   A    
C28   H6    S    
H1    C23   S    
O9    V2    S    
C45   C47   S    
O17   V3    S    
O10   V1    S    
C44   C46   S    
C48   H20   S    
C43   H23   S    
C37   C45   S    
N5    H34   S    
C55   C60   S    
