data_str_m2_o16_o16_f0_pcu.sym.167
_audit_creation_date              2012-12-10T17:31:21-0500
_audit_creation_method            fapswitch 2.2
_symmetry_space_group_name_H-M    P1
_symmetry_Int_Tables_number       1
_space_group_crystal_system       triclinic
_cell_length_a                    18.111254
_cell_length_b                    19.348514
_cell_length_c                    12.441547
_cell_angle_alpha                 90.111401
_cell_angle_beta                  131.249811
_cell_angle_gamma                 89.82676
_cell_volume                      3277.89553428

loop_
_atom_site_label
_atom_site_type_symbol
_atom_type_description
_atom_site_fract_x
_atom_site_fract_y
_atom_site_fract_z
_atom_type_partial_charge
C1    C     C_R   0.596100 0.891656 0.632774 0.916689
C2    C     C_R   0.595467 0.108468 0.632709 0.934186
C3    C     C_R   0.096100 0.391656 0.632774 0.916689
C4    C     C_R   0.095467 0.608468 0.632709 0.934186
C5    C     C_R   0.216410 0.784226 0.015888 0.020941
C6    C     C_R   0.220759 0.218440 0.018218 0.020563
C7    C     C_R   0.716410 0.284226 0.015888 0.020941
C8    C     C_R   0.720759 0.718440 0.018218 0.020563
C9    C     C_R   0.656306 0.257233 0.040747 0.023631
C10   C     C_R   0.660005 0.746275 0.041634 0.021473
C11   C     C_R   0.156306 0.757233 0.040747 0.023631
C12   C     C_R   0.160005 0.246275 0.041634 0.021473
C13   C     C_R   0.580439 0.211888 0.942337 0.299233
C14   C     C_R   0.583767 0.791523 0.941488 0.292418
C15   C     C_R   0.080439 0.711888 0.942337 0.299232
C16   C     C_R   0.083767 0.291523 0.941488 0.292418
C17   C     C_R   0.563547 0.193212 0.818391 0.321672
C18   C     C_R   0.565338 0.807177 0.815434 0.318315
C19   C     C_R   0.063547 0.693212 0.818391 0.321672
C20   C     C_R   0.065338 0.307177 0.815434 0.318315
C21   C     C_R   0.291904 0.830738 0.119264 -0.123895
C22   C     C_R   0.294502 0.170707 0.120532 -0.131892
C23   C     C_R   0.791905 0.330738 0.119264 -0.123895
C24   C     C_R   0.794502 0.670707 0.120532 -0.131892
C25   C     C_R   0.245745 0.823754 0.261159 -0.177069
C26   C     C_R   0.247288 0.179687 0.261632 -0.177380
C27   C     C_R   0.745745 0.323754 0.261159 -0.177069
C28   C     C_R   0.747289 0.679687 0.261632 -0.177380
C29   C     C_R   0.634518 0.179122 0.694496 -0.100497
C30   C     C_R   0.636767 0.821347 0.694061 -0.098886
C31   C     C_R   0.134518 0.679122 0.694496 -0.100497
C32   C     C_R   0.136767 0.321347 0.694061 -0.098886
C33   C     C_R   0.707421 0.999546 0.322699 0.364180
C34   C     C_R   0.207421 0.499546 0.322699 0.364180
C35   C     C_R   0.337344 0.001179 0.620986 0.113199
C36   C     C_R   0.837344 0.501179 0.620986 0.113199
C37   C     C_R   0.302206 0.001470 0.689282 -0.215897
C38   C     C_R   0.802206 0.501470 0.689282 -0.215897
C39   C     C_R   0.381637 0.098321 0.340191 0.793290
C40   C     C_R   0.381638 0.901882 0.340266 0.799711
C41   C     C_R   0.881637 0.598321 0.340191 0.793290
C42   C     C_R   0.881638 0.401882 0.340266 0.799711
C43   C     C_R   0.363700 0.996708 0.837315 0.381237
C44   C     C_R   0.863700 0.496708 0.837315 0.381237
C45   C     C_R   0.470205 0.000143 0.926649 -0.004783
C46   C     C_R   0.970205 0.500143 0.926649 -0.004783
C47   C     C_R   0.507950 0.000950 0.851642 0.281049
C48   C     C_R   0.007950 0.500950 0.851642 0.281049
C49   C     C_R   0.537750 0.000189 0.082390 -0.031284
C50   C     C_R   0.037750 0.500189 0.082390 -0.031284
C51   C     C_R   0.642912 0.999515 0.167250 -0.006974
C52   C     C_R   0.142912 0.499515 0.167250 -0.006974
C53   C     C_R   0.681398 0.999656 0.098066 0.242412
C54   C     C_R   0.181398 0.499657 0.098066 0.242412
C55   C     C_R   0.620392 0.000454 0.944620 -0.091809
C56   C     C_R   0.120392 0.500454 0.944620 -0.091809
C57   C     C_R   0.504217 0.004307 0.158831 0.115004
C58   C     C_R   0.004217 0.504307 0.158831 0.115004
C59   C     C_R   0.667346 0.998446 0.387563 0.062591
C60   C     C_R   0.167346 0.498446 0.387563 0.062591
C61   C     C_R   0.671979 0.277943 0.163329 -0.075722
C62   C     C_R   0.674681 0.726604 0.163764 -0.072444
C63   C     C_R   0.171979 0.777943 0.163329 -0.075722
C64   C     C_R   0.174681 0.226604 0.163764 -0.072444
C65   C     C_R   0.306362 0.850348 0.240667 -0.047474
C66   C     C_R   0.307505 0.151049 0.241010 -0.042446
C67   C     C_R   0.806362 0.350348 0.240667 -0.047474
C68   C     C_R   0.807505 0.651049 0.241010 -0.042446
C69   C     C_R   0.689035 0.213241 0.665514 -0.038164
C70   C     C_R   0.692894 0.788298 0.666494 -0.033762
C71   C     C_R   0.189035 0.713241 0.665514 -0.038164
C72   C     C_R   0.192893 0.288298 0.666494 -0.033762
C73   C     C_R   0.249152 0.768015 0.748883 -0.145692
C74   C     C_R   0.257540 0.235827 0.755581 -0.155681
C75   C     C_R   0.749152 0.268015 0.748883 -0.145692
C76   C     C_R   0.757540 0.735827 0.755581 -0.155681
C77   C     C_R   0.257758 0.790482 0.861503 -0.049227
C78   C     C_R   0.267960 0.214424 0.870763 -0.068036
C79   C     C_R   0.757758 0.290482 0.861503 -0.049227
C80   C     C_R   0.767960 0.714425 0.870763 -0.068036
C81   C     C_R   0.701811 0.262292 0.892344 0.016084
C82   C     C_R   0.707851 0.740759 0.896500 0.019085
C83   C     C_R   0.201811 0.762292 0.892344 0.016084
C84   C     C_R   0.207851 0.240759 0.896500 0.019085
C85   C     C_R   0.630289 0.210714 0.797771 -0.042144
C86   C     C_R   0.633701 0.790298 0.798000 -0.054748
C87   C     C_R   0.130289 0.710714 0.797771 -0.042144
C88   C     C_R   0.133701 0.290298 0.798000 -0.054748
Cu1   Cu    Cu3+1 0.526340 1.000000 0.421010 1.014304
Cu2   Cu    Cu3+1 0.026340 0.500000 0.421010 1.014304
Cu3   Cu    Cu3+1 0.473640 1.000000 0.578990 1.039085
Cu4   Cu    Cu3+1 0.973640 0.500000 0.578990 1.039085
H1    H     H_    0.254580 0.839133 0.352499 0.195829
H2    H     H_    0.255207 0.165094 0.352700 0.192943
H3    H     H_    0.754580 0.339133 0.352499 0.195829
H4    H     H_    0.755207 0.665094 0.352700 0.192943
H5    H     H_    0.433431 0.019741 0.113678 0.186699
H6    H     H_    0.933431 0.519741 0.113678 0.186699
H7    H     H_    0.286383 0.000429 0.505231 0.127704
H8    H     H_    0.786383 0.500429 0.505231 0.127704
H9    H     H_    0.221225 0.000352 0.618649 0.200842
H10   H     H_    0.721224 0.500352 0.618649 0.200842
H11   H     H_    0.626820 0.259879 0.185366 0.212997
H12   H     H_    0.629118 0.745874 0.184643 0.213056
H13   H     H_    0.126820 0.759879 0.185366 0.212997
H14   H     H_    0.129118 0.245874 0.184643 0.213056
H15   H     H_    0.341244 0.852441 0.108654 0.183532
H16   H     H_    0.343015 0.147558 0.109354 0.164720
H17   H     H_    0.841244 0.352441 0.108654 0.183532
H18   H     H_    0.843015 0.647558 0.109354 0.164720
H19   H     H_    0.307087 0.832926 0.919626 0.205241
H20   H     H_    0.323407 0.175377 0.935317 0.180047
H21   H     H_    0.807087 0.332926 0.919626 0.205241
H22   H     H_    0.823407 0.675377 0.935317 0.180047
H23   H     H_    0.291502 0.793968 0.727859 0.205368
H24   H     H_    0.302592 0.211481 0.737480 0.208300
H25   H     H_    0.791502 0.293968 0.727859 0.205368
H26   H     H_    0.802592 0.711481 0.737480 0.208300
N1    N     N_R   0.566260 0.000000 0.302220 -0.245124
N2    N     N_R   0.066260 0.500000 0.302220 -0.245124
N3    N     N_R   0.434410 1.000000 0.697680 -0.154218
N4    N     N_R   0.934410 0.500000 0.697680 -0.154218
O1    O     O_R   0.608610 0.924520 0.551740 -0.590160
O2    O     O_R   0.608610 0.075480 0.551740 -0.599435
O3    O     O_R   0.108610 0.424520 0.551740 -0.590161
O4    O     O_R   0.108610 0.575480 0.551740 -0.599435
O5    O     O_R   0.564110 0.924510 0.685150 -0.523724
O6    O     O_R   0.564110 0.075490 0.685150 -0.508223
O7    O     O_R   0.064110 0.424510 0.685150 -0.523724
O8    O     O_R   0.064110 0.575490 0.685150 -0.508223
O9    O     O_R   0.435880 0.075470 0.314850 -0.577679
O10   O     O_R   0.435880 0.924530 0.314850 -0.561697
O11   O     O_R   0.935880 0.575470 0.314850 -0.577679
O12   O     O_R   0.935880 0.424530 0.314850 -0.561697
O13   O     O_R   0.391380 0.075460 0.448260 -0.566936
O14   O     O_R   0.391380 0.924540 0.448260 -0.567537
O15   O     O_R   0.891380 0.575460 0.448260 -0.566936
O16   O     O_R   0.891380 0.424540 0.448260 -0.567537
Cl1   Cl    Cl    0.814127 0.995502 0.211183 -0.545785
Cl2   Cl    Cl    0.314127 0.495502 0.211183 -0.545785
Cl3   Cl    Cl    0.839923 0.991833 0.450332 -0.390584
Cl4   Cl    Cl    0.339923 0.491833 0.450332 -0.390584
Cl5   Cl    Cl    0.289197 0.974891 0.878835 -0.663085
Cl6   Cl    Cl    0.789197 0.474891 0.878835 -0.663085
C89   C     C_2   0.697243 0.995387 0.921385 0.432888
H27   H     H_    0.774231 0.980320 0.999276 0.173605
O17   O     O_2   0.689379 0.003013 0.818083 -0.573310
C90   C     C_2   0.197243 0.495387 0.921385 0.432888
H28   H     H_    0.274231 0.480320 0.999276 0.173605
O18   O     O_2   0.189379 0.503013 0.818083 -0.573310
Cl7   Cl    Cl    0.510329 0.174571 0.980225 -0.674865
Cl8   Cl    Cl    0.513694 0.830709 0.978182 -0.647314
Cl9   Cl    Cl    0.010329 0.674571 0.980225 -0.674865
Cl10  Cl    Cl    0.013694 0.330709 0.978182 -0.647314
C91   C     C_2   0.686517 0.195015 0.548054 0.384193
H29   H     H_    0.754325 0.195265 0.566972 0.106401
O19   O     O_2   0.608750 0.184542 0.427617 -0.511309
C92   C     C_2   0.689279 0.806074 0.547626 0.400688
H30   H     H_    0.756941 0.805867 0.565877 0.114290
O20   O     O_2   0.611004 0.816325 0.427358 -0.509966
C93   C     C_2   0.186517 0.695015 0.548054 0.384193
H31   H     H_    0.254325 0.695265 0.566972 0.106401
O21   O     O_2   0.108750 0.684542 0.427617 -0.511309
C94   C     C_2   0.189279 0.306074 0.547626 0.400688
H32   H     H_    0.256941 0.305867 0.565877 0.114290
O22   O     O_2   0.111004 0.316326 0.427358 -0.509966
Cl11  Cl    Cl    0.443948 0.164207 0.677051 -0.616417
Cl12  Cl    Cl    0.442994 0.830421 0.668635 -0.610381
Cl13  Cl    Cl    0.943948 0.664207 0.677051 -0.616417
Cl14  Cl    Cl    0.942994 0.330421 0.668635 -0.610381
C95   C     C_2   0.735953 0.995822 0.551801 0.440882
H33   H     H_    0.713241 0.001939 0.609004 0.170464
O23   O     O_2   0.823913 0.981890 0.635838 -0.487379
C96   C     C_2   0.235953 0.495822 0.551801 0.440882
H34   H     H_    0.213241 0.501939 0.609004 0.170464
O24   O     O_2   0.323913 0.481890 0.635838 -0.487379

loop_
_geom_bond_atom_site_label_1
_geom_bond_atom_site_label_2
_ccdc_geom_bond_type
C26   H2    S    
C92   O20   D    
C95   H33   S    
C56   C90   S    
C91   O19   D    
C60   C96   S    
C14   C18   A    
C27   H3    S    
C37   H9    S    
C58   H6    S    
Cu4   O16   S    
C41   O11   A    
C93   H31   S    
C2    O6    A    
C94   O22   D    
C32   C72   A    
C39   O13   A    
C15   C19   A    
C40   O14   A    
C69   C91   S    
Cu1   O10   S    
Cu3   O5    S    
C2    C29   S    
C9    C61   A    
C94   H32   S    
C28   C68   A    
C90   O18   D    
C5    C11   A    
C19   C87   A    
C6    C12   A    
C12   C64   A    
C35   H7    S    
C47   N3    A    
C42   O16   A    
C77   C83   A    
C6    C22   A    
C49   C57   A    
C48   C56   A    
C25   C63   A    
C23   C67   A    
C77   H19   S    
C26   C64   A    
C96   H34   S    
C22   C66   A    
C9    C13   A    
C27   C61   A    
C93   O21   D    
C11   C15   A    
C54   Cl2   S    
Cu3   O14   S    
C12   C16   A    
C52   C54   A    
C49   C51   A    
C75   H25   S    
C50   C52   A    
C76   C80   A    
C69   C75   A    
C30   C86   A    
C29   C85   A    
C7    C23   A    
C44   Cl6   S    
C57   N1    A    
C21   C65   A    
C45   C47   A    
C40   O10   A    
C74   H24   S    
C33   C59   A    
C3    O7    A    
C34   C60   A    
C10   C62   A    
C59   C95   S    
Cu4   O15   S    
C28   C62   A    
C30   C70   A    
C44   C46   A    
C89   H27   S    
C41   C68   S    
C29   C69   A    
C53   C55   A    
C72   C94   S    
C23   H17   S    
C46   C48   A    
C6    C84   A    
Cu3   O6    S    
C89   O17   D    
C26   C66   A    
Cu2   O12   S    
Cu1   N1    S    
C35   N3    A    
C31   C87   A    
C90   H28   S    
C13   Cl7   S    
C72   C74   A    
C10   C14   A    
C79   C81   A    
Cu2   O11   S    
C18   Cl12  S    
C4    O8    A    
Cu1   O1    S    
C33   Cl3   S    
C82   C86   A    
C62   H12   S    
C76   H26   S    
C70   C92   S    
C5    C21   A    
C84   C88   A    
C37   C43   A    
C36   N4    A    
C1    O1    A    
C5    C83   A    
C38   C44   A    
Cu4   N4    S    
C95   O23   D    
Cu2   Cu4   S    
C45   C49   A    
C25   H1    S    
C16   C20   A    
C57   H5    S    
C58   N2    A    
Cu2   O4    S    
C50   C58   A    
C24   H18   S    
C36   H8    S    
C27   C67   A    
C18   C86   A    
C43   C45   A    
C21   H15   S    
C80   C82   A    
C7    C81   A    
C80   H22   S    
C40   C65   S    
C79   H21   S    
C16   Cl10  S    
C42   C67   S    
C39   C66   S    
C17   C85   A    
Cu1   Cu3   S    
C70   C76   A    
C14   Cl8   S    
C35   C37   A    
C47   C55   A    
C43   Cl5   S    
C7    C9    A    
C34   Cl4   S    
C59   N1    A    
C71   C93   S    
C61   H11   S    
C53   Cl1   S    
C41   O15   A    
C1    O5    A    
C73   H23   S    
C83   C87   A    
Cu4   O7    S    
C3    O3    A    
C54   C56   A    
C64   H14   S    
Cu1   O2    S    
C2    O2    A    
C33   C51   A    
C17   Cl11  S    
C46   C50   A    
C34   C52   A    
Cu1   O9    S    
C4    O4    A    
C28   H4    S    
C36   C38   A    
C20   Cl14  S    
C38   H10   S    
C48   N4    A    
C19   Cl13  S    
C92   H30   S    
C39   O9    A    
C22   H16   S    
C20   C88   A    
C31   C71   A    
C1    C30   S    
C8    C24   A    
Cu2   O3    S    
C42   O12   A    
C60   N2    A    
Cu3   N3    S    
C3    C32   S    
C96   O24   D    
C15   Cl9   S    
C4    C31   S    
C55   C89   S    
C63   H13   S    
C24   C68   A    
C13   C17   A    
C78   C84   A    
C8    C82   A    
Cu3   O13   S    
C8    C10   A    
C74   C78   A    
C71   C73   A    
C91   H29   S    
C25   C65   A    
C73   C77   A    
Cu4   O8    S    
C78   H20   S    
C51   C53   A    
C11   C63   A    
C75   C79   A    
C81   C85   A    
Cu2   N2    S    
C32   C88   A    
