data_str_m3_o5_o17_f0_pcu.sym.46
_audit_creation_date              2013-03-05T16:46:59-0500
_audit_creation_method            fapswitch 2.2
_symmetry_space_group_name_H-M    P1
_symmetry_Int_Tables_number       1
_space_group_crystal_system       triclinic
_cell_length_a                    14.985564
_cell_length_b                    8.953517
_cell_length_c                    8.110485
_cell_angle_alpha                 89.987053
_cell_angle_beta                  90.218527
_cell_angle_gamma                 89.919527
_cell_volume                      1088.2031582

loop_
_atom_site_label
_atom_site_type_symbol
_atom_site_description
_atom_site_fract_x
_atom_site_fract_y
_atom_site_fract_z
_atom_type_partial_charge
O1    O     O_R   0.500000 0.285350 0.636850 -0.619086
O2    O     O_R   0.500000 0.714650 0.363150 -0.619959
O3    O     O_R   0.500000 0.714650 0.636850 -0.616168
O4    O     O_R   0.500000 0.285350 0.363150 -0.613282
C1    C     C_R   0.499889 0.217967 0.500013 0.917389
C2    C     C_R   0.499648 0.782028 0.499986 0.924407
O5    O     O_R   0.367850 0.500000 0.636890 -0.622761
O6    O     O_R   0.632150 0.500000 0.363110 -0.628397
O7    O     O_R   0.632150 0.500000 0.636890 -0.622382
O8    O     O_R   0.367850 0.500000 0.363110 -0.622281
C3    C     C_R   0.326963 0.500148 0.499627 0.878453
C4    C     C_R   0.673309 0.500072 0.500414 0.881084
Zn1   Zn    Zn3+2 0.500000 0.500000 0.682780 0.972983
Zn2   Zn    Zn3+2 0.500000 0.500000 0.317220 0.976657
N1    N     N_1   0.500000 0.500000 0.073640 -0.036983
N2    N     N_1   0.500000 0.500000 0.926360 -0.038577
C5    C     C_R   0.813530 0.623408 0.438225 0.166722
C6    C     C_R   0.188208 0.361537 0.516191 0.179764
C7    C     C_R   0.813789 0.374112 0.564526 0.177456
C8    C     C_R   0.186206 0.631435 0.471640 0.182516
C9    C     C_R   0.768737 0.498826 0.500787 -0.236258
C10   C     C_R   0.232051 0.497916 0.497975 -0.232808
C11   C     C_R   0.907377 0.367294 0.551809 0.024321
C12   C     C_R   0.093769 0.626437 0.446802 0.027472
C13   C     C_R   0.906984 0.621712 0.431318 0.021624
C14   C     C_R   0.094850 0.361352 0.529798 0.022682
C15   C     C_R   0.953808 0.493967 0.490202 -0.157962
C16   C     C_R   0.047342 0.493598 0.488424 -0.164526
C17   C     C_R   0.955390 0.237661 0.599462 0.330434
C18   C     C_R   0.047627 0.749574 0.379502 0.321997
C19   C     C_R   0.954393 0.742466 0.361257 0.337930
C20   C     C_R   0.048734 0.232907 0.582685 0.335695
C21   C     C_1   0.499617 0.065145 0.500034 -0.206782
C22   C     C_1   0.499507 0.934851 0.499992 -0.203160
O9    O     O_3   0.910659 0.114452 0.658755 -0.765235
H1    H     H_    0.943762 0.076247 0.756150 0.331070
O10   O     O_3   0.095124 0.871646 0.323273 -0.751161
H2    H     H_    0.056190 0.961076 0.323537 0.347260
O11   O     O_3   0.909231 0.849724 0.270956 -0.737986
H3    H     H_    0.947011 0.880472 0.176855 0.335552
O12   O     O_3   0.096299 0.106157 0.625554 -0.748934
H4    H     H_    0.058096 0.016868 0.612999 0.351888
N3    N     N_2   0.764690 0.754894 0.394412 -0.244218
H5    H     H_    0.710563 0.738652 0.317882 0.239529
C23   C     C_3   0.746326 0.854481 0.530530 -0.640226
H6    H     H_    0.698562 0.802220 0.617474 0.202623
H7    H     H_    0.716655 0.959590 0.482639 0.233131
H8    H     H_    0.808941 0.881954 0.597385 0.287748
N4    N     N_2   0.237992 0.225444 0.515566 -0.247001
H9    H     H_    0.295687 0.226673 0.585189 0.215773
C24   C     C_3   0.251025 0.163486 0.352607 -0.649211
H10   H     H_    0.291512 0.240306 0.275796 0.221818
H11   H     H_    0.185662 0.144079 0.291340 0.265242
H12   H     H_    0.286928 0.055444 0.361955 0.237224
N5    N     N_2   0.764540 0.255677 0.639723 -0.241829
H13   H     H_    0.705046 0.228345 0.583155 0.206481
C25   C     C_3   0.757913 0.264648 0.817730 -0.634709
H14   H     H_    0.726557 0.161124 0.865542 0.229352
H15   H     H_    0.716572 0.361630 0.855079 0.232744
H16   H     H_    0.825031 0.275966 0.874914 0.240313
N6    N     N_2   0.232584 0.770495 0.477442 -0.243694
H17   H     H_    0.290917 0.773343 0.410528 0.218212
C26   C     C_3   0.243283 0.829312 0.642547 -0.661909
H18   H     H_    0.274622 0.941230 0.637275 0.250335
H19   H     H_    0.286962 0.755204 0.717354 0.222217
H20   H     H_    0.177419 0.839580 0.703842 0.259388

loop_
_geom_bond_atom_site_label_1
_geom_bond_atom_site_label_2
_geom_bond_distance
_ccdc_geom_bond_type
O3    Zn1   1.957558 S    
C13   C19   1.414747 A    
C7    C11   1.407880 A    
N3    H5    1.029973 S    
C26   H19   1.110127 S    
C14   C20   1.410120 A    
O10   H2    0.990072 S    
C11   C15   1.422936 A    
C13   C15   1.422531 A    
O12   H4    0.988997 S    
C17   O9    1.379066 S    
C3    C10   1.422496 S    
C14   C16   1.420244 A    
O9    H1    0.991708 S    
C6    C14   1.403791 A    
C18   C19   1.405946 A    
O6    C4    1.270951 A    
C24   H12   1.108694 S    
C5    C13   1.401853 A    
O3    C2    1.263239 A    
N5    H13   1.030913 S    
N5    C25   1.449750 S    
C21   C22   1.166595 T    
Zn1   N2    1.975552 S    
C26   H20   1.110532 S    
C23   H6    1.110488 S    
O5    C3    1.268695 A    
N3    C23   1.446247 S    
C25   H14   1.110304 S    
O2    C2    1.263321 A    
C2    C22   1.368298 S    
O1    C1    1.263314 A    
N1    N2    1.194511 T    
C11   C17   1.417586 A    
C7    C9    1.401733 A    
C8    C10   1.393985 A    
C17   C20   1.406515 A    
C23   H7    1.109766 S    
O4    Zn2   1.957559 S    
N6    H17   1.031022 S    
O2    Zn2   1.957724 S    
O7    C4    1.269192 A    
C12   C18   1.409369 A    
C25   H15   1.108873 S    
O1    Zn1   1.957724 S    
O8    C3    1.267489 A    
C20   O12   1.382934 S    
C24   H10   1.110475 S    
O11   H3    0.991187 S    
C8    C12   1.399800 A    
O5    Zn1   2.013618 S    
C18   O10   1.383336 S    
C5    N3    1.429439 S    
N4    H9    1.030916 S    
O8    Zn2   2.016409 S    
C23   H8    1.109855 S    
C7    N5    1.430547 S    
C8    N6    1.427466 S    
N6    C26   1.447443 S    
N4    C24   1.447311 S    
O7    Zn1   2.016407 S    
Zn2   N1    1.975552 S    
O4    C1    1.263274 A    
C25   H16   1.110737 S    
O6    Zn2   2.013617 S    
C24   H11   1.110558 S    
C6    C10   1.395499 A    
C4    C9    1.430062 S    
C5    C9    1.398816 A    
C12   C16   1.420059 A    
C6    N4    1.427886 S    
C19   O11   1.382293 S    
C26   H18   1.108135 S    
C15   C16   1.401785 A    
C1    C21   1.368312 S    
