data_str_m4_o7_o7_f0_acs.sym.53
_audit_creation_date              2012-12-11T16:26:28-0500
_audit_creation_method            fapswitch 2.2
_symmetry_space_group_name_H-M    P1
_symmetry_Int_Tables_number       1
_space_group_crystal_system       triclinic
_cell_length_a                    13.988937
_cell_length_b                    13.977505
_cell_length_c                    31.917193
_cell_angle_alpha                 90.076137
_cell_angle_beta                  89.924726
_cell_angle_gamma                 120.024163
_cell_volume                      5403.35363735

loop_
_atom_site_label
_atom_site_type_symbol
_atom_type_description
_atom_site_fract_x
_atom_site_fract_y
_atom_site_fract_z
_atom_type_partial_charge
C1    C     C_R   0.567458 0.444387 0.810494 0.541964
C2    C     C_R   0.444342 0.567512 0.189489 0.541761
C3    C     C_3   0.747420 0.038257 0.661378 0.010441
C4    C     C_3   0.794114 0.964814 0.674289 -0.268148
C5    C     C_3   0.919708 0.029277 0.672645 -0.504237
C6    C     C_3   0.303405 0.360275 0.811707 0.021217
C7    C     C_3   0.210993 0.376250 0.830068 -0.288375
C8    C     C_3   0.167022 0.424764 0.797672 -0.461771
C9    C     C_3   0.953433 0.704074 0.666771 0.013919
C10   C     C_3   0.974191 0.763189 0.709072 -0.239651
C11   C     C_3   0.875007 0.771957 0.724000 -0.462322
C12   C     C_3   0.635630 0.940729 0.808093 0.022150
C13   C     C_R   0.433549 0.877831 0.310078 0.553647
C14   C     C_3   0.618179 0.829507 0.823839 -0.291900
C15   C     C_3   0.569881 0.741527 0.789591 -0.464935
C16   C     C_3   0.305849 0.261282 0.671591 0.034336
C17   C     C_3   0.190507 0.180988 0.654697 -0.282369
C18   C     C_3   0.194558 0.126182 0.613730 -0.464748
C19   C     C_3   0.696842 0.949261 0.327368 0.035222
C20   C     C_3   0.811922 0.982906 0.344636 -0.277946
C21   C     C_3   0.805062 0.927401 0.386678 -0.465908
C22   C     C_3   0.933763 0.627958 0.192063 0.018678
C23   C     C_3   0.820699 0.599465 0.174193 -0.288984
C24   C     C_R   0.122761 0.555464 0.189666 0.544647
C25   C     C_3   0.729810 0.543678 0.207026 -0.461009
C26   C     C_3   0.251107 0.303683 0.328411 0.035010
C27   C     C_3   0.169177 0.189664 0.346528 -0.278078
C28   C     C_3   0.121273 0.199203 0.388409 -0.465419
C29   C     C_3   0.691043 0.070873 0.186558 0.016352
C30   C     C_3   0.767082 0.182021 0.165164 -0.285556
C31   C     C_3   0.800195 0.278321 0.195345 -0.467169
C32   C     C_3   0.051887 0.748786 0.327296 0.034872
C33   C     C_3   0.018519 0.831005 0.344089 -0.278292
C34   C     C_3   0.075593 0.882399 0.385650 -0.466185
C35   C     C_1   0.984884 0.525634 0.021101 -0.031946
C36   C     C_3   0.367068 0.304585 0.188117 0.019477
C37   C     C_3   0.393652 0.220264 0.168493 -0.287652
C38   C     C_3   0.449670 0.182270 0.200021 -0.462802
C39   C     C_3   0.969189 0.688993 0.075327 -0.249918
C40   C     C_3   0.071874 0.788670 0.057430 -0.429182
C41   C     C_3   0.721620 0.117988 0.419552 -0.254933
C42   C     C_3   0.732341 0.230624 0.427442 -0.441526
C43   C     C_3   0.303643 0.289892 0.071530 -0.250732
C44   C     C_3   0.204428 0.296565 0.055525 -0.428076
C45   C     C_3   0.887169 0.609167 0.420598 -0.254790
C46   C     C_1   0.536290 0.011977 0.479500 -0.041106
C47   C     C_3   0.775082 0.507365 0.429322 -0.442095
C48   C     C_3   0.709284 0.014674 0.071000 -0.250967
C49   C     C_3   0.708898 0.911707 0.054836 -0.429580
C50   C     C_3   0.394688 0.281444 0.421125 -0.254733
C51   C     C_3   0.496862 0.271684 0.429405 -0.441701
C52   C     C_3   0.613892 0.905686 0.574720 -0.254014
C53   C     C_3   0.526847 0.788979 0.587724 -0.421911
C54   C     C_3   0.014671 0.708396 0.929231 -0.253790
C55   C     C_3   0.914340 0.711032 0.946660 -0.433248
C56   C     C_3   0.294125 0.403186 0.575656 -0.252722
C57   C     C_1   0.467671 0.472060 0.018675 -0.031514
C58   C     C_3   0.293922 0.510236 0.566444 -0.441266
C59   C     C_3   0.689300 0.971291 0.925709 -0.248395
C60   C     C_3   0.790524 0.074729 0.942272 -0.428791
C61   C     C_3   0.094254 0.715597 0.576558 -0.258115
C62   C     C_3   0.206400 0.727884 0.565908 -0.431881
C63   C     C_3   0.290636 0.301768 0.928622 -0.250468
C64   C     C_3   0.299492 0.203735 0.944659 -0.427613
C65   C     C_1   0.995942 0.533150 0.480533 -0.040614
C66   C     C_1   0.523468 0.982799 0.017132 -0.031447
C67   C     C_1   0.473021 0.468449 0.480303 -0.039934
C68   C     C_1   0.543455 0.025078 0.516601 -0.043131
C69   C     C_R   0.876307 0.432415 0.689569 0.563356
C70   C     C_1   0.974671 0.520671 0.983674 -0.031574
C71   C     C_1   0.479517 0.462251 0.517403 -0.038789
C72   C     C_1   0.527250 0.990358 0.979576 -0.031468
C73   C     C_1   0.983338 0.527202 0.517701 -0.038600
C74   C     C_1   0.471186 0.468630 0.981119 -0.031653
C75   C     C_R   0.925118 0.465541 0.852892 -0.002704
C76   C     C_R   0.545433 0.084801 0.646207 0.026843
C77   C     C_R   0.528570 0.463006 0.851217 -0.005027
C78   C     C_R   0.919557 0.463728 0.646852 0.024586
C79   C     C_R   0.535977 0.062881 0.850536 -0.004188
C80   C     C_R   0.555498 0.122753 0.810366 0.544928
C81   C     C_R   0.537276 0.454536 0.646577 0.015522
C82   C     C_R   0.468730 0.926939 0.351967 0.016179
C83   C     C_R   0.062925 0.535892 0.149572 -0.004713
C84   C     C_R   0.457061 0.532397 0.352315 0.016527
C85   C     C_R   0.467994 0.928891 0.147721 -0.005210
C86   C     C_R   0.074540 0.543349 0.352322 0.016543
C87   C     C_R   0.462897 0.529137 0.148657 -0.005325
C88   C     C_R   0.969347 0.575055 0.868052 0.274886
C89   C     C_R   0.588636 0.017845 0.632561 0.258782
C90   C     C_R   0.421066 0.389460 0.866851 0.272139
C91   C     C_R   0.567272 0.443860 0.689639 0.554252
C92   C     C_R   0.983012 0.575299 0.633751 0.249601
C93   C     C_R   0.607004 0.024740 0.865210 0.265442
C94   C     C_R   0.426805 0.414324 0.632999 0.258739
C95   C     C_R   0.581328 0.993616 0.364330 0.260953
C96   C     C_R   0.022976 0.605744 0.135378 0.269080
C97   C     C_R   0.410824 0.420090 0.365173 0.260856
C98   C     C_R   0.576724 0.968266 0.132389 0.271715
C99   C     C_R   0.008764 0.590247 0.364860 0.261191
C100  C     C_R   0.390684 0.421109 0.133164 0.271807
C101  C     C_R   0.982130 0.595042 0.911814 0.046824
C102  C     C_R   0.876127 0.432090 0.810668 0.544364
C103  C     C_R   0.582704 0.990135 0.589432 0.036606
C104  C     C_R   0.399567 0.389545 0.910232 0.047362
C105  C     C_R   0.012905 0.598863 0.590939 0.038249
C106  C     C_R   0.605136 0.998776 0.908230 0.046673
C107  C     C_R   0.407028 0.426188 0.590314 0.047940
C108  C     C_R   0.605196 0.032822 0.406222 0.048849
C109  C     C_R   0.996736 0.604484 0.092452 0.046762
C110  C     C_R   0.425598 0.397424 0.407267 0.049007
C111  C     C_R   0.597352 0.985691 0.088759 0.047327
C112  C     C_R   0.971908 0.577527 0.407046 0.049283
C113  C     C_R   0.556357 0.124446 0.689404 0.562934
C114  C     C_R   0.390185 0.399749 0.089730 0.046817
C115  C     C_R   0.962697 0.507352 0.939025 0.006310
C116  C     C_R   0.545206 0.041251 0.560754 -0.003867
C117  C     C_R   0.482597 0.469739 0.936350 0.005754
C118  C     C_R   0.967081 0.510667 0.561843 0.002547
C119  C     C_R   0.526341 0.002658 0.934880 0.005167
C120  C     C_R   0.494949 0.461125 0.561479 -0.001881
C121  C     C_R   0.518123 0.991579 0.435659 -0.001061
C122  C     C_R   0.000518 0.526010 0.065571 0.005588
C123  C     C_R   0.470681 0.485334 0.436389 -0.001007
C124  C     C_R   0.444071 0.566537 0.310144 0.553040
C125  C     C_R   0.511369 0.972971 0.061923 0.006019
C126  C     C_R   0.014954 0.533789 0.436553 -0.001509
C127  C     C_R   0.468909 0.483563 0.063439 0.005744
C128  C     C_R   0.931824 0.403043 0.923012 -0.157378
C129  C     C_R   0.505150 0.108884 0.574715 -0.157521
C130  C     C_R   0.582405 0.550704 0.919328 -0.156580
C131  C     C_R   0.904162 0.401703 0.575268 -0.159099
C132  C     C_R   0.447728 0.025853 0.918597 -0.159759
C133  C     C_R   0.601811 0.496130 0.575055 -0.161887
C134  C     C_R   0.409173 0.925185 0.423181 -0.160254
C135  C     C_R   0.432008 0.876011 0.189302 0.542074
C136  C     C_R   0.025918 0.448444 0.081378 -0.158731
C137  C     C_R   0.513075 0.593955 0.423466 -0.161306
C138  C     C_R   0.408972 0.947559 0.078369 -0.157067
C139  C     C_R   0.080571 0.490365 0.423900 -0.161648
C140  C     C_R   0.548882 0.584103 0.080313 -0.157499
C141  C     C_R   0.912019 0.381875 0.880551 -0.185509
C142  C     C_R   0.503591 0.128961 0.616961 -0.182145
C143  C     C_R   0.605591 0.547198 0.877297 -0.186481
C144  C     C_R   0.882489 0.378249 0.617358 -0.182850
C145  C     C_R   0.452606 0.056095 0.876968 -0.184731
C146  C     C_R   0.122324 0.555940 0.310173 0.552391
C147  C     C_R   0.623146 0.495249 0.617172 -0.182502
C148  C     C_R   0.384648 0.895143 0.381770 -0.181002
C149  C     C_R   0.057594 0.453680 0.122816 -0.186081
C150  C     C_R   0.508423 0.617333 0.381877 -0.180742
C151  C     C_R   0.387159 0.925180 0.120694 -0.185057
C152  C     C_R   0.107978 0.492943 0.382255 -0.181348
C153  C     C_R   0.545682 0.607101 0.122375 -0.185255
C154  C     C_3   0.092392 0.687596 0.818028 0.006286
C155  C     C_3   0.197276 0.749650 0.844889 -0.280280
C156  C     C_3   0.300942 0.780202 0.819341 -0.474619
Cr1   Cr    Cr6+3 0.504240 0.249200 0.750000 1.008353
Cr2   Cr    Cr6+3 0.744960 0.495760 0.750000 0.999177
Cr3   Cr    Cr6+3 0.750800 0.255040 0.750000 1.014866
Cr4   Cr    Cr6+3 0.249200 0.504240 0.250000 1.010628
Cr5   Cr    Cr6+3 0.495760 0.744960 0.250000 1.010695
Cr6   Cr    Cr6+3 0.255040 0.750800 0.250000 1.009467
H1    H     H_    0.084425 0.397121 0.133161 0.157005
H2    H     H_    0.395067 0.081268 0.866272 0.157979
H3    H     H_    0.040309 0.930881 0.399277 0.132888
H4    H     H_    0.165369 0.938580 0.380425 0.142218
H5    H     H_    0.309577 0.264393 0.214787 0.154050
H6    H     H_    0.443185 0.374692 0.201789 0.116892
H7    H     H_    0.316132 0.147226 0.157433 0.163974
H8    H     H_    0.449650 0.257899 0.141227 0.153519
H9    H     H_    0.527844 0.253878 0.211381 0.143252
H10   H     H_    0.469184 0.122739 0.184745 0.148274
H11   H     H_    0.394207 0.140920 0.227102 0.165184
H12   H     H_    0.133750 0.831057 0.082601 0.164346
H13   H     H_    0.831152 0.292637 0.626617 0.128148
H14   H     H_    0.109201 0.762848 0.032316 0.150005
H15   H     H_    0.049144 0.847816 0.043991 0.123490
H16   H     H_    0.904834 0.651224 0.050668 0.124272
H17   H     H_    0.934112 0.718313 0.100013 0.170424
H18   H     H_    0.710258 0.259721 0.398653 0.164551
H19   H     H_    0.678264 0.226706 0.453622 0.151580
H20   H     H_    0.819047 0.291334 0.435831 0.146974
H21   H     H_    0.744954 0.089752 0.448299 0.122749
H22   H     H_    0.782990 0.130098 0.395294 0.186852
H23   H     H_    0.163984 0.314613 0.081882 0.166390
H24   H     H_    0.687153 0.606534 0.865963 0.152782
H25   H     H_    0.230231 0.362272 0.031471 0.150503
H26   H     H_    0.143717 0.216341 0.041249 0.122512
H27   H     H_    0.339345 0.264689 0.045582 0.125566
H28   H     H_    0.274498 0.223104 0.095217 0.169809
H29   H     H_    0.744609 0.455216 0.400759 0.164192
H30   H     H_    0.780345 0.458004 0.455473 0.151433
H31   H     H_    0.714774 0.533572 0.438126 0.146180
H32   H     H_    0.916451 0.662096 0.449035 0.123231
H33   H     H_    0.873932 0.657257 0.396208 0.186452
H34   H     H_    0.692653 0.853386 0.081060 0.163998
H35   H     H_    0.027229 0.387134 0.060910 0.115826
H36   H     H_    0.644714 0.869733 0.030396 0.151188
H37   H     H_    0.790656 0.935397 0.040995 0.122921
H38   H     H_    0.732441 0.075782 0.045257 0.124326
H39   H     H_    0.775077 0.054395 0.094957 0.171656
H40   H     H_    0.548221 0.293065 0.400638 0.164337
H41   H     H_    0.546794 0.326858 0.455378 0.151271
H42   H     H_    0.471156 0.185321 0.438276 0.146925
H43   H     H_    0.342819 0.258585 0.449828 0.123414
H44   H     H_    0.345855 0.219267 0.397036 0.186670
H45   H     H_    0.519552 0.781706 0.622355 0.196484
H46   H     H_    0.342381 0.894916 0.445808 0.122703
H47   H     H_    0.445579 0.767917 0.574149 0.141252
H48   H     H_    0.550435 0.728842 0.575911 0.136518
H49   H     H_    0.622677 0.906307 0.540161 0.133154
H50   H     H_    0.695294 0.924998 0.587306 0.140488
H51   H     H_    0.853778 0.694029 0.921220 0.159438
H52   H     H_    0.873841 0.648738 0.971825 0.153524
H53   H     H_    0.940668 0.794073 0.959908 0.123870
H54   H     H_    0.077887 0.731398 0.954130 0.123607
H55   H     H_    0.052658 0.773276 0.904855 0.176497
H56   H     H_    0.315923 0.561913 0.595170 0.163891
H57   H     H_    0.610601 0.647678 0.060300 0.115302
H58   H     H_    0.353345 0.557731 0.541133 0.152955
H59   H     H_    0.210144 0.490640 0.556254 0.140851
H60   H     H_    0.268860 0.350323 0.547177 0.122790
H61   H     H_    0.229810 0.357867 0.599584 0.186747
H62   H     H_    0.833095 0.133566 0.916232 0.165758
H63   H     H_    0.766487 0.115654 0.966579 0.147776
H64   H     H_    0.848803 0.051837 0.956405 0.123329
H65   H     H_    0.652151 0.909361 0.951239 0.125067
H66   H     H_    0.716329 0.932970 0.901476 0.166896
H67   H     H_    0.240216 0.706871 0.593636 0.164956
H68   H     H_    0.112096 0.455224 0.446550 0.122014
H69   H     H_    0.199571 0.673417 0.539387 0.151964
H70   H     H_    0.265039 0.814726 0.556838 0.140519
H71   H     H_    0.060857 0.737129 0.548825 0.123667
H72   H     H_    0.108772 0.777651 0.601027 0.171404
H73   H     H_    0.318071 0.163779 0.918275 0.167504
H74   H     H_    0.365629 0.230803 0.968577 0.150740
H75   H     H_    0.219947 0.142157 0.959106 0.122076
H76   H     H_    0.264741 0.336805 0.954588 0.125609
H77   H     H_    0.223585 0.271403 0.905045 0.168381
H78   H     H_    0.343520 0.939647 0.057942 0.116360
H79   H     H_    0.549023 0.661403 0.445854 0.121431
H80   H     H_    0.475265 0.147029 0.552711 0.124530
H81   H     H_    0.299074 0.841241 0.373547 0.124716
H82   H     H_    0.918445 0.336165 0.943797 0.117338
H83   H     H_    0.669352 0.524040 0.552859 0.123484
H84   H     H_    0.385900 0.026781 0.938841 0.115460
H85   H     H_    0.870740 0.334096 0.552932 0.122348
H86   H     H_    0.645398 0.613467 0.939218 0.115120
H87   H     H_    0.099249 0.742732 0.791846 0.150887
H88   H     H_    0.087948 0.613051 0.803448 0.118682
H89   H     H_    0.203277 0.826588 0.857507 0.162692
H90   H     H_    0.193980 0.697170 0.871582 0.154578
H91   H     H_    0.296719 0.704947 0.805837 0.142695
H92   H     H_    0.604097 0.689130 0.133610 0.156330
H93   H     H_    0.374466 0.821233 0.839995 0.148055
H94   H     H_    0.310402 0.837861 0.793654 0.158466
H95   H     H_    0.775857 0.106262 0.684497 0.180499
H96   H     H_    0.783124 0.076307 0.630338 0.102539
H97   H     H_    0.766766 0.933759 0.706657 0.159694
H98   H     H_    0.763008 0.892737 0.652808 0.165360
H99   H     H_    0.947780 0.061050 0.640457 0.142910
H100  H     H_    0.953217 0.974948 0.681064 0.148526
H101  H     H_    0.952639 0.099661 0.694996 0.147562
H102  H     H_    0.270000 0.303963 0.784302 0.151025
H103  H     H_    0.161405 0.460798 0.373913 0.124259
H104  H     H_    0.370915 0.440401 0.799376 0.114063
H105  H     H_    0.142046 0.295308 0.840770 0.166067
H106  H     H_    0.242874 0.433063 0.857396 0.151868
H107  H     H_    0.234363 0.505955 0.786477 0.142610
H108  H     H_    0.101673 0.436882 0.812113 0.153829
H109  H     H_    0.131082 0.367774 0.770570 0.162372
H110  H     H_    0.864742 0.640100 0.664291 0.159291
H111  H     H_    0.970593 0.764946 0.641409 0.098980
H112  H     H_    0.992050 0.716984 0.733109 0.189136
H113  H     H_    0.047708 0.847243 0.706367 0.138023
H114  H     H_    0.304157 0.897940 0.131688 0.158743
H115  H     H_    0.834209 0.788219 0.697413 0.132282
H116  H     H_    0.902141 0.839691 0.747308 0.132160
H117  H     H_    0.813949 0.693950 0.739370 0.205323
H118  H     H_    0.692284 0.966808 0.780714 0.158453
H119  H     H_    0.556139 0.930534 0.796270 0.117749
H120  H     H_    0.698483 0.839284 0.834105 0.165224
H121  H     H_    0.560754 0.801325 0.851012 0.151404
H122  H     H_    0.489187 0.729745 0.778849 0.148321
H123  H     H_    0.556740 0.661794 0.802099 0.154816
H124  H     H_    0.627417 0.765945 0.762526 0.155030
H125  H     H_    0.540017 0.702695 0.373299 0.124870
H126  H     H_    0.301754 0.255119 0.706330 0.141480
H127  H     H_    0.363663 0.232862 0.661450 0.149948
H128  H     H_    0.146917 0.114457 0.678213 0.120018
H129  H     H_    0.142151 0.223581 0.650566 0.176536
H130  H     H_    0.245587 0.188657 0.589928 0.153393
H131  H     H_    0.109764 0.074655 0.601183 0.130991
H132  H     H_    0.230240 0.071984 0.619401 0.147443
H133  H     H_    0.700262 0.941894 0.292794 0.147231
H134  H     H_    0.636283 0.865305 0.338915 0.148561
H135  H     H_    0.855203 0.956526 0.322193 0.115931
H136  H     H_    0.474990 0.184559 0.626537 0.124867
H137  H     H_    0.863122 0.074104 0.347422 0.174618
H138  H     H_    0.750105 0.937990 0.408857 0.152148
H139  H     H_    0.888310 0.963932 0.400796 0.132399
H140  H     H_    0.772362 0.837520 0.381981 0.142239
H141  H     H_    0.952651 0.685577 0.218830 0.154761
H142  H     H_    0.930235 0.552566 0.205283 0.119029
H143  H     H_    0.823279 0.676266 0.163384 0.164206
H144  H     H_    0.800255 0.542686 0.147033 0.153217
H145  H     H_    0.724456 0.465753 0.217984 0.145357
H146  H     H_    0.649274 0.523650 0.193076 0.147129
H147  H     H_    0.880330 0.297841 0.869761 0.161915
H148  H     H_    0.746430 0.599601 0.234197 0.166022
H149  H     H_    0.240300 0.298397 0.293839 0.144166
H150  H     H_    0.228195 0.365189 0.339239 0.149940
H151  H     H_    0.099207 0.145503 0.324327 0.116349
H152  H     H_    0.208570 0.138117 0.349832 0.174267
H153  H     H_    0.187247 0.255223 0.410211 0.153134
H154  H     H_    0.074260 0.116760 0.403217 0.131278
H155  H     H_    0.064494 0.232087 0.383298 0.142511
H156  H     H_    0.736619 0.061132 0.213157 0.156941
H157  H     H_    0.618431 0.071448 0.200583 0.118437
H158  H     H_    0.706965 0.521157 0.626516 0.123071
H159  H     H_    0.842848 0.183467 0.153717 0.163384
H160  H     H_    0.724089 0.193062 0.137950 0.154239
H161  H     H_    0.725754 0.277997 0.207658 0.143252
H162  H     H_    0.851766 0.357320 0.178570 0.146259
H163  H     H_    0.848514 0.272924 0.221904 0.164833
H164  H     H_    0.058624 0.758076 0.292674 0.144545
H165  H     H_    0.136035 0.772749 0.338720 0.149893
H166  H     H_    0.043724 0.899289 0.321119 0.116049
H167  H     H_    0.927497 0.790875 0.347379 0.174401
H168  H     H_    0.065057 0.818185 0.408454 0.152568
O1    O     O_R   0.480350 0.140770 0.796330 -0.513733
O2    O     O_R   0.140770 0.480350 0.203670 -0.515324
O3    O     O_R   0.519650 0.660420 0.296330 -0.537213
O4    O     O_R   0.339580 0.859230 0.203670 -0.517591
O5    O     O_R   0.514930 0.348530 0.793250 -0.454133
O6    O     O_R   0.833600 0.485070 0.706750 -0.496927
O7    O     O_R   0.651470 0.166400 0.793250 -0.456905
O8    O     O_R   0.514930 0.348530 0.706750 -0.515825
O9    O     O_R   0.833600 0.485070 0.793250 -0.456707
O10   O     O_R   0.651470 0.166400 0.706750 -0.502847
O11   O     O_R   0.348530 0.514930 0.293250 -0.511761
O12   O     O_R   0.660420 0.519650 0.703670 -0.546314
O13   O     O_R   0.485070 0.833600 0.206750 -0.455820
O14   O     O_R   0.166400 0.651470 0.293250 -0.512009
O15   O     O_R   0.348530 0.514930 0.206750 -0.455936
O16   O     O_R   0.485070 0.833600 0.293250 -0.511271
O17   O     O_R   0.166400 0.651470 0.206750 -0.457064
O18   O     O_3   0.666667 0.333333 0.750000 -0.241113
O19   O     O_3   0.333333 0.666667 0.250000 -0.238841
O20   O     O_3   0.995332 0.662101 0.840886 -0.576600
O21   O     O_3   0.630612 0.974873 0.661535 -0.583421
O22   O     O_3   0.340092 0.309882 0.841263 -0.570088
O23   O     O_R   0.859230 0.339580 0.796330 -0.519003
O24   O     O_3   0.024313 0.659239 0.663281 -0.580895
O25   O     O_3   0.686280 0.023720 0.839285 -0.571626
O26   O     O_3   0.339793 0.372674 0.661283 -0.587621
O27   O     O_3   0.666667 0.030822 0.335275 -0.587194
O28   O     O_3   0.018837 0.682399 0.161897 -0.572341
O29   O     O_3   0.362692 0.333860 0.336466 -0.587359
O30   O     O_3   0.661044 0.980820 0.158797 -0.572836
O31   O     O_3   0.970569 0.637302 0.335810 -0.588553
O32   O     O_3   0.313504 0.338874 0.159040 -0.571283
O33   O     O_R   0.480350 0.140770 0.703670 -0.538465
O34   O     O_R   0.660420 0.519650 0.796330 -0.530258
O35   O     O_R   0.859230 0.339580 0.703670 -0.538544
O36   O     O_R   0.140770 0.480350 0.296330 -0.536825
O37   O     O_R   0.519650 0.660420 0.203670 -0.517234
O38   O     O_R   0.339580 0.859230 0.296330 -0.536789

loop_
_geom_bond_atom_site_label_1
_geom_bond_atom_site_label_2
_ccdc_geom_bond_type
C2    O15   A    
C26   O29   S    
C21   H138  S    
C1    C77   S    
C19   C20   S    
Cr3   O7    S    
C10   H113  S    
C55   H52   S    
Cr1   O8    S    
Cr5   O16   S    
Cr6   O4    S    
C54   H54   S    
C34   H168  S    
C8    H109  S    
C41   H21   S    
C32   O31   S    
C63   H77   S    
C139  C152  A    
C50   C110  S    
C120  C133  A    
C118  C131  A    
C66   C72   T    
C42   H18   S    
C81   C147  A    
C27   H152  S    
C111  C125  A    
C148  H81   S    
C87   C153  A    
C90   O22   S    
C61   C105  S    
C151  H114  S    
C12   H118  S    
C137  H79   S    
C59   C60   S    
C4    H98   S    
C5    H99   S    
C45   C47   S    
C42   H19   S    
C94   C107  A    
C59   C106  S    
C38   H9    S    
C64   H73   S    
C155  H89   S    
C63   C104  S    
C129  C142  A    
C17   H129  S    
C18   H130  S    
C13   C82   S    
C22   H142  S    
C43   C44   S    
C85   C151  A    
C37   C38   S    
Cr5   O37   S    
C86   C152  A    
C110  C123  A    
C26   H149  S    
C92   O24   S    
C59   H66   S    
C122  C136  A    
C154  C155  S    
C68   C116  S    
C9    H110  S    
C62   H70   S    
C101  C115  A    
C105  C118  A    
C107  C120  A    
C39   C40   S    
C39   H16   S    
C51   H42   S    
Cr2   O18   S    
C104  C117  A    
C45   H32   S    
C33   H166  S    
C69   O35   A    
C47   H31   S    
C35   C122  S    
C70   C115  S    
C4    C5    S    
C67   C123  S    
C6    C7    S    
C138  C151  A    
C96   C109  A    
C103  C116  A    
C40   H12   S    
C4    H97   S    
C15   H123  S    
C91   O12   A    
C60   H64   S    
C31   H162  S    
C95   C108  A    
C95   O27   S    
C39   C109  S    
C20   C21   S    
C155  C156  S    
C52   H50   S    
C22   C23   S    
C23   H144  S    
C6    H102  S    
C89   O21   S    
C25   H145  S    
C52   C103  S    
C16   H127  S    
C61   H71   S    
C54   C101  S    
C36   H6    S    
C7    C8    S    
C19   H133  S    
C132  C145  A    
C9    H111  S    
C36   C37   S    
Cr3   O18   S    
C55   H53   S    
C129  H80   S    
C24   O17   A    
C28   H153  S    
C47   H30   S    
Cr1   O33   S    
C8    H108  S    
C75   C141  A    
C58   H58   S    
C102  O23   A    
C53   H48   S    
C6    H104  S    
C41   H22   S    
C133  C147  A    
C34   H3    S    
Cr6   O38   S    
C9    C10   S    
C11   H116  S    
C51   H40   S    
C76   C89   A    
C89   C103  A    
C19   O27   S    
C15   H122  S    
C58   H59   S    
Cr4   O19   S    
C126  C139  A    
C1    O34   A    
C100  C114  A    
Cr2   O9    S    
C40   H14   S    
Cr6   O17   S    
C16   C17   S    
C69   O6    A    
C154  H88   S    
C78   C92   A    
C3    H95   S    
C115  C128  A    
C77   C143  A    
C46   C68   T    
C29   C30   S    
C130  C143  A    
C78   C144  A    
C93   C106  A    
C134  H46   S    
C17   C18   S    
C2    C87   S    
C52   C53   S    
C7    H105  S    
C50   H44   S    
C140  C153  A    
C85   C135  S    
C141  H147  S    
C137  C150  A    
C127  C140  A    
C3    C4    S    
C156  H91   S    
C5    H101  S    
C87   C100  A    
C49   H37   S    
C54   C55   S    
C82   C95   A    
C100  O32   S    
C146  O14   A    
Cr3   O10   S    
C125  C138  A    
C57   C127  S    
C56   H61   S    
C39   H17   S    
C38   H10   S    
C123  C137  A    
Cr1   O5    S    
C147  H158  S    
C65   C126  S    
C76   C113  S    
C81   C94   A    
C58   H56   S    
C132  H84   S    
C83   C96   A    
C56   C58   S    
C84   C150  A    
C61   C62   S    
C99   O31   S    
C102  O9    A    
C10   C11   S    
C44   H25   S    
C36   O32   S    
C63   C64   S    
C27   H151  S    
C113  O33   A    
C14   C15   S    
C24   O2    A    
Cr2   O34   S    
C133  H83   S    
Cr4   O2    S    
C106  C119  A    
C41   C42   S    
C108  C121  A    
C136  C149  A    
Cr5   O13   S    
C42   H20   S    
Cr5   O3    S    
C26   C27   S    
C30   H160  S    
C48   H38   S    
C91   O8    A    
C84   C97   A    
C33   H167  S    
C24   C83   S    
C64   H74   S    
C6    O22   S    
C43   C114  S    
C30   C31   S    
C1    O5    A    
C17   H128  S    
C20   H137  S    
C21   H140  S    
C29   H156  S    
Cr1   O18   S    
C43   H28   S    
C80   O7    A    
C26   H150  S    
C154  O20   S    
C73   C118  S    
C121  C134  A    
C59   H65   S    
C128  C141  A    
C112  C126  A    
C22   O28   S    
C156  H93   S    
C12   H119  S    
C18   H132  S    
Cr4   O36   S    
C10   H112  S    
C98   O30   S    
C86   C146  S    
C11   H117  S    
C51   H41   S    
C77   C90   A    
C30   H159  S    
C130  H86   S    
C3    O21   S    
C36   H5    S    
C135  O13   A    
C55   H51   S    
C9    O24   S    
C96   O28   S    
Cr2   O12   S    
C113  O10   A    
C140  H57   S    
C82   C148  A    
C31   H163  S    
Cr2   O6    S    
C50   C51   S    
C31   H161  S    
C136  H35   S    
C131  H85   S    
C48   C49   S    
C145  H2    S    
C13   O38   A    
C5    H100  S    
C143  H24   S    
C23   H143  S    
C54   H55   S    
C93   O25   S    
C14   H121  S    
C119  C132  A    
C155  H90   S    
C49   H34   S    
C152  H103  S    
Cr4   O15   S    
C32   C33   S    
C22   H141  S    
Cr3   O35   S    
Cr6   O14   S    
C28   H155  S    
C37   H7    S    
C56   H60   S    
C114  C127  A    
C32   H165  S    
C67   C71   T    
C28   H154  S    
C47   H29   S    
C81   C91   S    
C92   C105  A    
C53   H47   S    
C62   H69   S    
C16   O26   S    
C34   H4    S    
C11   H115  S    
C131  C144  A    
C146  O36   A    
C83   C149  A    
Cr5   O19   S    
C45   H33   S    
C153  H92   S    
Cr1   O1    S    
C41   C108  S    
C94   O26   S    
C63   H76   S    
C29   H157  S    
C88   C101  A    
C45   C112  S    
C79   C145  A    
C14   H120  S    
C97   O29   S    
C71   C120  S    
Cr4   O11   S    
C79   C93   A    
C124  O11   A    
Cr3   O23   S    
C13   O16   A    
C109  C122  A    
C65   C73   T    
C144  H13   S    
C15   H124  S    
C60   H63   S    
C85   C98   A    
C116  C129  A    
C35   C70   T    
C52   H49   S    
C46   C121  S    
C138  H78   S    
C149  H1    S    
C16   H126  S    
Cr6   O19   S    
C25   H146  S    
C61   H72   S    
C69   C78   S    
C60   H62   S    
C49   H36   S    
C2    O37   A    
C19   H134  S    
C37   H8    S    
C38   H11   S    
C48   H39   S    
C40   H15   S    
C57   C74   T    
C56   C107  S    
C8    H107  S    
C86   C99   A    
C75   C102  S    
C142  H136  S    
C62   H67   S    
C90   C104  A    
C33   C34   S    
C64   H75   S    
C117  C130  A    
C44   H26   S    
C12   C14   S    
C150  H125  S    
C74   C117  S    
C12   O25   S    
C98   C111  A    
C18   H131  S    
C154  H87   S    
C124  O3    A    
C84   C124  S    
C3    H96   S    
C134  C148  A    
C44   H23   S    
C66   C125  S    
C20   H135  S    
C97   C110  A    
C135  O4    A    
C128  H82   S    
C99   C112  A    
C72   C119  S    
C53   H45   S    
C139  H68   S    
C21   H139  S    
C23   C25   S    
C7    H106  S    
C88   O20   S    
C79   C80   S    
C50   H43   S    
C75   C88   A    
C48   C111  S    
C25   H148  S    
C43   H27   S    
C27   C28   S    
C32   H164  S    
C80   O1    A    
C156  H94   S    
C29   O30   S    
C76   C142  A    
