data_str_m12_o9_o24_f0_bcu.sym.53
_audit_creation_date              2012-12-11T17:47:30-0500
_audit_creation_method            fapswitch 2.2
_symmetry_space_group_name_H-M    P1
_symmetry_Int_Tables_number       1
_space_group_crystal_system       triclinic
_cell_length_a                    14.818826
_cell_length_b                    14.957896
_cell_length_c                    15.179411
_cell_angle_alpha                 110.707653
_cell_angle_beta                  109.267452
_cell_angle_gamma                 108.342103
_cell_volume                      2592.33941436

loop_
_atom_site_label
_atom_site_type_symbol
_atom_type_description
_atom_site_fract_x
_atom_site_fract_y
_atom_site_fract_z
_atom_type_partial_charge
C1    C     C_R   0.915925 0.198298 0.000156 -0.121786
C2    C     C_R   0.838598 0.962056 0.915324 -0.189771
C3    C     C_R   0.193184 0.079840 0.791899 -0.088538
C4    C     C_R   0.731717 0.888669 0.118955 -0.110038
C5    C     C_R   0.092981 0.037595 0.788697 -0.201351
C6    C     C_R   0.800604 0.909390 0.076518 -0.122409
C7    C     C_R   0.667672 0.277020 0.187556 -0.111502
C8    C     C_R   0.376173 0.723772 0.900373 -0.120207
C9    C     C_R   0.770645 0.353756 0.279568 -0.161605
C10   C     C_R   0.303089 0.640890 0.792698 -0.149300
C11   C     C_R   0.851622 0.323784 0.310252 -0.042627
C12   C     C_R   0.024211 0.747434 0.935462 -0.078257
C13   C     C_R   0.249598 0.664670 0.715935 -0.051156
C14   C     C_R   0.827365 0.214146 0.246788 0.471513
C15   C     C_R   0.279439 0.776164 0.747973 0.523405
C16   C     C_R   0.294278 0.805306 0.204510 -0.105699
C17   C     C_R   0.684176 0.243590 0.775557 -0.089201
C18   C     C_R   0.723819 0.139142 0.154442 -0.171906
C19   C     C_R   0.362994 0.859203 0.853683 -0.144542
C20   C     C_R   0.644432 0.170169 0.125185 -0.198710
C21   C     C_R   0.409214 0.833067 0.930462 -0.194554
C22   C     C_R   0.970456 0.410485 0.503962 -0.268158
C23   C     C_R   0.295680 0.870486 0.296674 0.053582
C24   C     C_R   0.144689 0.565434 0.513925 -0.251360
C25   C     C_R   0.063964 0.492863 0.603041 0.076304
C26   C     C_R   0.046896 0.487764 0.415840 0.080101
C27   C     C_R   0.152818 0.572053 0.609911 0.049919
C28   C     C_R   0.959558 0.407272 0.409967 0.042076
C29   C     C_R   0.088680 0.035880 0.879112 -0.091390
C30   C     C_R   0.769439 0.834457 0.970190 -0.127645
C31   C     C_R   0.286375 0.107600 0.970894 -0.188080
C32   C     C_R   0.600609 0.716623 0.950804 -0.100877
C33   C     C_R   0.077138 0.971808 0.369736 0.244831
C34   C     C_R   0.675215 0.217107 0.673953 0.076807
C35   C     C_R   0.795733 0.001316 0.529033 0.242471
C36   C     C_R   0.183831 0.020751 0.384332 0.444123
C37   C     C_R   0.703051 0.012358 0.523896 0.492043
C38   C     C_R   0.272063 0.030712 0.467855 -0.072246
C39   C     C_R   0.669916 0.069125 0.474745 -0.056054
C40   C     C_R   0.224611 0.408422 0.978949 -0.115993
C41   C     C_R   0.788061 0.591659 0.094591 -0.138028
C42   C     C_R   0.255457 0.000204 0.540940 -0.337651
C43   C     C_R   0.723624 0.107633 0.424799 -0.387084
C44   C     C_R   0.149908 0.947197 0.523208 -0.166668
C45   C     C_R   0.324950 0.499975 0.059179 0.088613
C46   C     C_R   0.817151 0.100405 0.433577 -0.176943
C47   C     C_R   0.059842 0.927679 0.435490 0.469007
C48   C     C_R   0.857339 0.053145 0.490077 0.465250
C49   C     C_R   0.475040 0.136885 0.561577 -0.251987
C50   C     C_R   0.479716 0.015871 0.377324 -0.218879
C51   C     C_R   0.575122 0.148481 0.568077 0.075881
C52   C     C_R   0.380598 0.985244 0.377348 0.111872
C53   C     C_R   0.576515 0.086207 0.473655 0.134256
C54   C     C_R   0.376434 0.053135 0.467195 0.173161
C55   C     C_R   0.289285 0.111813 0.881453 -0.198612
C56   C     C_R   0.697320 0.500904 0.066386 0.092638
C57   C     C_R   0.630625 0.794065 0.055114 -0.270544
C58   C     C_R   0.834855 0.871504 0.923472 0.040816
C59   C     C_R   0.980784 0.974885 0.867536 0.056923
C60   C     C_R   0.187702 0.072626 0.972371 0.556438
C61   C     C_R   0.668780 0.735352 0.906906 0.555155
C62   C     C_R   0.901753 0.829993 0.898198 0.012145
C63   C     C_R   0.922729 0.023453 0.904491 0.051534
C64   C     C_R   0.049673 0.590456 0.313973 0.530372
C65   C     C_R   0.005501 0.408222 0.702572 0.482479
C66   C     C_3   0.490911 0.426822 0.988903 0.622106
C67   C     C_R   0.032717 0.497133 0.322273 -0.108136
C68   C     C_3   0.543501 0.573899 0.181575 0.617365
C69   C     C_3   0.472476 0.525014 0.011223 -0.308199
C70   C     C_3   0.565359 0.475923 0.159973 -0.318999
C71   C     C_3   0.428476 0.499825 0.083401 -0.012058
C72   C     C_3   0.607073 0.500868 0.085977 0.036693
C73   C     C_3   0.446891 0.400102 0.059741 -0.352677
C74   C     C_3   0.588789 0.600629 0.111541 -0.249658
C75   C     C_R   0.314530 0.591587 0.071433 -0.135641
C76   C     C_R   0.699322 0.409547 0.005033 -0.049053
C77   C     C_R   0.973288 0.407730 0.219277 -0.178055
C78   C     C_R   0.056536 0.498070 0.696087 -0.096372
C79   C     C_R   0.085706 0.590210 0.787644 -0.200345
C80   C     C_R   0.207066 0.804498 0.298291 -0.075796
C81   C     C_R   0.779842 0.255364 0.688596 -0.134232
C82   C     C_R   0.006202 0.200065 0.908490 -0.117354
C83   C     C_R   0.929522 0.747145 0.023838 -0.080055
C84   C     C_R   0.953017 0.138326 0.942076 0.064524
C85   C     C_R   0.944398 0.772054 0.947013 0.054724
C86   C     C_R   0.952803 0.869146 0.846466 -0.168917
H1    H     H_    0.858197 0.169235 0.025337 0.103865
H2    H     H_    0.876951 0.986013 0.124954 0.211756
H3    H     H_    0.322619 0.007095 0.605070 0.201611
H4    H     H_    0.696543 0.148670 0.384337 0.187473
H5    H     H_    0.473208 0.186802 0.632244 0.155188
H6    H     H_    0.485107 0.969009 0.308301 0.127619
H7    H     H_    0.993168 0.831391 0.811885 0.127589
H8    H     H_    0.785413 0.992044 0.932959 0.129902
H9    H     H_    0.206492 0.324014 0.944810 0.111349
H10   H     H_    0.816772 0.675956 0.151615 0.107272
H11   H     H_    0.024540 0.172134 0.844383 0.125401
H12   H     H_    0.060336 0.758845 0.887074 0.094369
H13   H     H_    0.875438 0.756404 0.054810 0.128950
H14   H     H_    0.196310 0.086572 0.724369 0.134151
H15   H     H_    0.755156 0.947509 0.200098 0.158917
H16   H     H_    0.361781 0.133472 0.040435 0.143181
H17   H     H_    0.522653 0.642508 0.901587 0.142725
H18   H     H_    0.564817 0.111358 0.053601 0.126855
H19   H     H_    0.468462 0.897301 0.013861 0.137133
H20   H     H_    0.787431 0.436619 0.327055 0.138866
H21   H     H_    0.280438 0.556806 0.771425 0.137972
H22   H     H_    0.974030 0.239487 0.332112 0.330544
H23   H     H_    0.605213 0.299635 0.163919 0.124476
H24   H     H_    0.147229 0.748450 0.635155 0.304446
H25   H     H_    0.386851 0.320397 0.040587 0.166587
H26   H     H_    0.654424 0.683154 0.143450 0.153419
H27   H     H_    0.339860 0.831665 0.167487 0.092859
H28   H     H_    0.618721 0.226674 0.794471 0.110543
H29   H     H_    0.120295 0.057407 0.060894 0.320852
H30   H     H_    0.687681 0.678736 0.780763 0.324272
H31   H     H_    0.903302 0.829940 0.337770 0.319895
H32   H     H_    0.991928 0.059798 0.575818 0.325974
H33   H     H_    0.935996 0.965221 0.311762 0.352639
H34   H     H_    0.405173 0.702149 0.960497 0.112362
H35   H     H_    0.861632 0.909249 0.537176 0.360588
H36   H     H_    0.135121 0.039754 0.258941 0.371004
H37   H     H_    0.677558 0.935778 0.601709 0.370862
H38   H     H_    0.137139 0.914526 0.573942 0.202438
H39   H     H_    0.862703 0.137608 0.401945 0.200914
H40   H     H_    0.428780 0.539482 0.947451 0.136766
H41   H     H_    0.606921 0.462262 0.225419 0.150322
H42   H     H_    0.382603 0.314345 0.841573 0.311012
H43   H     H_    0.526919 0.611423 0.307588 0.319867
H44   H     H_    0.090850 0.693321 0.458531 0.325784
H45   H     H_    0.704981 0.056493 0.103776 0.145998
H46   H     H_    0.030556 0.307291 0.605340 0.330719
H47   H     H_    0.378916 0.676076 0.122827 0.122008
H48   H     H_    0.646193 0.325839 0.979282 0.111558
H49   H     H_    0.949601 0.323751 0.195575 0.154344
H50   H     H_    0.135374 0.674465 0.813377 0.134862
H51   H     H_    0.176036 0.827859 0.351612 0.158095
H52   H     H_    0.804596 0.258149 0.630279 0.149782
H53   H     H_    0.366501 0.141457 0.882372 0.157973
H54   H     H_    0.577037 0.780184 0.088509 0.146099
H55   H     H_    0.386514 0.944084 0.878400 0.134569
H56   H     H_    0.901094 0.352358 0.500217 0.150831
H57   H     H_    0.211563 0.625072 0.516280 0.171749
H58   H     H_    0.018575 0.006703 0.715984 0.172547
N1    N     N_R   0.947560 0.293820 0.002910 -0.044857
N2    N     N_R   0.789450 0.443190 0.997090 -0.057285
N3    N     N_R   0.945970 0.443180 0.152110 -0.073074
N4    N     N_R   0.054030 0.556820 0.847890 -0.067443
N5    N     N_R   0.151530 0.706170 0.208880 -0.049600
N6    N     N_R   0.848470 0.293830 0.791120 -0.038675
N7    N     N_R   0.004980 0.293810 0.946140 -0.043993
N8    N     N_R   0.995020 0.706190 0.053860 -0.050177
N9    N     N_R   0.052440 0.706180 0.997090 -0.046188
N10   N     N_R   0.208960 0.706170 0.152110 -0.049011
N11   N     N_R   0.791040 0.293830 0.847890 -0.050401
N12   N     N_R   0.154330 0.443160 0.946140 -0.041211
N13   N     N_R   0.845670 0.556840 0.053860 -0.050905
N14   N     N_R   0.002190 0.556820 0.208880 -0.073859
N15   N     N_R   0.997810 0.443180 0.791120 -0.070590
N16   N     N_R   0.210550 0.556810 0.002910 -0.050963
Ni1   Ni    Ni4+2 0.869690 0.369690 0.000000 0.211438
Ni2   Ni    Ni4+2 0.130310 0.630310 0.000000 0.212234
Ni3   Ni    Ni4+2 0.001390 0.369680 0.869810 0.259444
Ni4   Ni    Ni4+2 0.998610 0.630320 0.130190 0.246272
O1    O     O_3   0.903158 0.178510 0.267932 -0.798301
O2    O     O_3   0.642607 0.968567 0.565159 -0.740698
O3    O     O_3   0.463271 0.349061 0.885882 -0.778914
O4    O     O_3   0.569222 0.652586 0.283123 -0.739232
O5    O     O_3   0.086303 0.694869 0.392938 -0.779669
O6    O     O_3   0.994890 0.306217 0.650118 -0.783089
O7    O     O_3   0.224643 0.807005 0.682169 -0.777752
O8    O     O_3   0.191643 0.072040 0.064383 -0.745795
O9    O     O_3   0.631339 0.657617 0.801613 -0.749426
O10   O     O_3   0.957102 0.862129 0.414750 -0.746482
O11   O     O_3   0.959198 0.064578 0.510425 -0.750587
O12   O     O_3   0.992569 0.966634 0.290550 -0.783349
O13   O     O_3   0.822660 0.939014 0.570343 -0.772432
O14   O     O_3   0.204448 0.056304 0.316860 -0.719359

loop_
_geom_bond_atom_site_label_1
_geom_bond_atom_site_label_2
_ccdc_geom_bond_type
C75   N16   A    
H31   O10   S    
H22   O1    S    
C1    H1    S    
C56   C76   A    
C45   C71   S    
C14   C18   A    
C46   H39   S    
C1    N1    A    
C67   C77   A    
C24   C27   A    
C12   N9    A    
C65   N15   A    
C16   H27   S    
C10   H21   S    
C6    H2    S    
N2    N13   A    
N11   Ni1   S    
C1    C84   A    
C15   C19   A    
N6    Ni3   S    
C62   C86   A    
C34   C51   S    
H46   O6    S    
C66   O3    S    
C26   C67   S    
C35   C37   A    
C24   C26   A    
C32   C61   A    
C38   C42   A    
C74   H26   S    
C11   C14   A    
C41   H10   S    
H44   O5    S    
C68   C74   S    
C80   H51   S    
C33   C36   A    
C55   H53   S    
C7    C9    A    
C64   O5    S    
C69   C71   S    
C33   O12   S    
H37   O2    S    
C3    C55   A    
C3    H14   S    
C66   C72   S    
C29   C59   S    
N12   Ni3   S    
C56   C72   S    
C22   C25   A    
C4    C57   A    
H42   O3    S    
C50   C52   A    
C34   C81   A    
C23   C80   A    
C12   C85   A    
C49   C54   A    
C77   N3    A    
C12   H12   S    
C82   N7    A    
C44   C47   A    
N14   Ni4   S    
C48   O11   S    
H24   O7    S    
C76   N2    A    
C19   H55   S    
C83   H13   S    
C18   H45   S    
C80   N5    A    
C42   C44   A    
C32   C57   A    
C49   H5    S    
C35   C48   A    
C22   C28   A    
C26   C28   A    
N2    Ni1   S    
C52   C54   A    
C17   H28   S    
C73   H25   S    
C5    C29   A    
C35   O13   S    
C81   H52   S    
C62   C85   S    
C46   C48   A    
C36   O14   S    
C43   H4    S    
C25   C78   S    
C50   C53   A    
C64   C67   A    
C2    H8    S    
C61   O9    S    
C72   C74   S    
N3    Ni1   S    
C63   C84   S    
C71   C73   S    
C76   H48   S    
C78   C79   A    
C5    H58   S    
C39   C43   A    
C49   C51   A    
C9    H20   S    
C66   C73   S    
C44   H38   S    
C7    H23   S    
C57   H54   S    
C51   C53   A    
N4    N15   A    
C60   O8    S    
C31   C60   A    
N5    N10   A    
C31   H16   S    
C41   C56   A    
C79   H50   S    
C86   H7    S    
H33   O12   S    
C38   C54   S    
C29   C60   A    
N12   N16   A    
C4    H15   S    
C22   H56   S    
C70   C73   S    
C2    C58   A    
C8    C21   A    
C32   H17   S    
C15   O7    S    
C69   C74   S    
N5    Ni4   S    
N8    Ni4   S    
N8    N9    A    
C14   O1    S    
C9    C11   A    
N13   Ni4   S    
N1    N7    A    
C58   C62   A    
C41   N13   A    
H30   O9    S    
C4    C6    A    
C6    C30   A    
H32   O11   S    
C16   C23   A    
C82   C84   A    
N6    N11   A    
C13   C15   A    
C16   N10   A    
C33   C47   A    
C82   H11   S    
N15   Ni3   S    
C17   C34   A    
C40   H9    S    
C17   N11   A    
C68   O4    S    
C2    C63   A    
C8    H34   S    
C83   N8    A    
C50   H6    S    
H36   O14   S    
C65   C78   A    
H43   O4    S    
C83   C85   A    
C59   C63   A    
N10   Ni2   S    
C13   C27   S    
H29   O8    S    
C3    C5    A    
C10   C13   A    
C69   H40   S    
H35   O13   S    
C75   H47   S    
C37   O2    S    
C20   H18   S    
C25   C27   A    
C77   H49   S    
N9    Ni2   S    
N7    Ni3   S    
C65   O6    S    
C45   C75   A    
C42   H3    S    
N4    Ni2   S    
C36   C38   A    
C59   C86   A    
C37   C39   A    
C70   H41   S    
C23   C52   S    
C39   C53   S    
N1    Ni1   S    
C11   C28   S    
C68   C71   S    
C30   C58   S    
C79   N4    A    
C18   C20   A    
C43   C46   A    
C47   O10   S    
C66   C69   S    
C40   C45   A    
C8    C10   A    
C7    C20   A    
C30   C61   A    
C64   N14   A    
C68   C70   S    
C40   N12   A    
C70   C72   S    
C24   H57   S    
C31   C55   A    
N3    N14   A    
C21   H19   S    
C81   N6    A    
N16   Ni2   S    
C19   C21   A    
