data_str_m3_o22_o22_f0_pcu.sym.110
_audit_creation_date              2012-12-10T19:09:21-0500
_audit_creation_method            fapswitch 2.2
_symmetry_space_group_name_H-M    P1
_symmetry_Int_Tables_number       1
_space_group_crystal_system       orthorhombic
_cell_length_a                    14.935031
_cell_length_b                    15.37967
_cell_length_c                    9.869577
_cell_angle_alpha                 90.0
_cell_angle_beta                  90.0
_cell_angle_gamma                 90.0
_cell_volume                      2267.00086059

loop_
_atom_site_label
_atom_site_type_symbol
_atom_type_description
_atom_site_fract_x
_atom_site_fract_y
_atom_site_fract_z
_atom_type_partial_charge
C1    C     C_R   0.126135 0.385367 0.499341 0.836456
C2    C     C_R   0.126135 0.614633 0.500659 0.836455
C3    C     C_R   0.626135 0.885367 0.500659 0.836456
C4    C     C_R   0.626135 0.114633 0.499341 0.836455
C5    C     C_3   0.907058 0.507198 0.079439 -0.229081
C6    C     C_3   0.907058 0.492802 0.920560 -0.229081
C7    C     C_3   0.407058 0.992802 0.079439 -0.229081
C8    C     C_3   0.407058 0.007198 0.920560 -0.229081
C9    C     C_R   0.878067 0.378916 0.500126 0.798758
C10   C     C_R   0.878067 0.621083 0.499874 0.798759
C11   C     C_R   0.378067 0.878916 0.499874 0.798759
C12   C     C_R   0.378067 0.121083 0.500126 0.798758
C13   C     C_3   0.832659 0.239812 0.609026 -0.339760
C14   C     C_3   0.810476 0.261300 0.360901 -0.375669
C15   C     C_3   0.832659 0.760188 0.390974 -0.339760
C16   C     C_3   0.810476 0.738700 0.639099 -0.375669
C17   C     C_3   0.310476 0.761300 0.639099 -0.375669
C18   C     C_3   0.332659 0.739812 0.390974 -0.339759
C19   C     C_3   0.310476 0.238700 0.360901 -0.375669
C20   C     C_3   0.332659 0.260188 0.609026 -0.339761
C21   C     C_3   0.240848 0.688540 0.642567 -0.402231
C22   C     C_3   0.266486 0.663862 0.395058 -0.418710
C23   C     C_3   0.240848 0.311460 0.357433 -0.402231
C24   C     C_3   0.266486 0.336138 0.604942 -0.418708
C25   C     C_3   0.766486 0.163862 0.604942 -0.418709
C26   C     C_3   0.740848 0.188540 0.357433 -0.402231
C27   C     C_3   0.766486 0.836138 0.395058 -0.418709
C28   C     C_3   0.740848 0.811460 0.642567 -0.402231
C29   C     C_3   0.711419 0.345650 0.528912 -0.097572
C30   C     C_3   0.711419 0.654350 0.471088 -0.097572
C31   C     C_3   0.211419 0.845650 0.471088 -0.097572
C32   C     C_3   0.211419 0.154350 0.528912 -0.097571
C33   C     C_3   0.808926 0.309174 0.500240 -0.030905
C34   C     C_3   0.808926 0.690826 0.499760 -0.030905
C35   C     C_3   0.308926 0.809174 0.499760 -0.030905
C36   C     C_3   0.308926 0.190826 0.500240 -0.030905
C37   C     C_3   0.193953 0.682142 0.502769 0.092516
C38   C     C_3   0.193954 0.317858 0.497231 0.092516
C39   C     C_3   0.693954 0.182142 0.497231 0.092516
C40   C     C_3   0.693954 0.817858 0.502769 0.092516
C41   C     C_3   0.145004 0.767903 0.473594 -0.288967
C42   C     C_3   0.145003 0.232097 0.526406 -0.288967
C43   C     C_3   0.645003 0.267903 0.526406 -0.288967
C44   C     C_3   0.645003 0.732097 0.473594 -0.288967
C45   C     C_3   0.040259 0.418906 0.083714 -0.167634
C46   C     C_3   0.054136 0.426681 0.923720 -0.155367
C47   C     C_3   0.040259 0.581094 0.916286 -0.167633
C48   C     C_3   0.054136 0.573319 0.076280 -0.155367
C49   C     C_3   0.554136 0.926681 0.076280 -0.155367
C50   C     C_3   0.540259 0.918906 0.916286 -0.167633
C51   C     C_3   0.554136 0.073319 0.923720 -0.155367
C52   C     C_3   0.540259 0.081094 0.083714 -0.167633
H1    H     H_    0.828805 0.268742 0.711541 0.230609
H2    H     H_    0.796237 0.307141 0.276692 0.203308
H3    H     H_    0.828805 0.731257 0.288459 0.230609
H4    H     H_    0.796237 0.692859 0.723308 0.203308
H5    H     H_    0.296236 0.807141 0.723308 0.203308
H6    H     H_    0.328805 0.768743 0.288459 0.230609
H7    H     H_    0.296237 0.192859 0.276692 0.203308
H8    H     H_    0.328805 0.231258 0.711541 0.230609
H9    H     H_    0.901639 0.214809 0.591613 0.195561
H10   H     H_    0.878023 0.232960 0.343060 0.223968
H11   H     H_    0.901639 0.785191 0.408387 0.195561
H12   H     H_    0.878023 0.767040 0.656940 0.223968
H13   H     H_    0.378023 0.732960 0.656940 0.223968
H14   H     H_    0.401639 0.714809 0.408387 0.195561
H15   H     H_    0.378023 0.267040 0.343060 0.223967
H16   H     H_    0.401639 0.285191 0.591612 0.195561
H17   H     H_    0.273782 0.625719 0.668315 0.175180
H18   H     H_    0.302654 0.602642 0.420258 0.176415
H19   H     H_    0.273782 0.374281 0.331684 0.175180
H20   H     H_    0.302654 0.397357 0.579742 0.176415
H21   H     H_    0.802654 0.102642 0.579742 0.176415
H22   H     H_    0.773782 0.125719 0.331685 0.175180
H23   H     H_    0.802654 0.897357 0.420258 0.176415
H24   H     H_    0.773782 0.874281 0.668315 0.175180
H25   H     H_    0.191844 0.703000 0.724143 0.234501
H26   H     H_    0.236780 0.654715 0.293005 0.225029
H27   H     H_    0.191844 0.297000 0.275857 0.234500
H28   H     H_    0.236780 0.345285 0.706995 0.225029
H29   H     H_    0.736780 0.154715 0.706995 0.225028
H30   H     H_    0.691844 0.203000 0.275857 0.234501
H31   H     H_    0.736780 0.845285 0.293005 0.225029
H32   H     H_    0.691844 0.797000 0.724143 0.234500
H33   H     H_    0.091699 0.776535 0.551436 0.208802
H34   H     H_    0.107728 0.761908 0.376887 0.213834
H35   H     H_    0.091699 0.223464 0.448564 0.208801
H36   H     H_    0.107728 0.238092 0.623113 0.213834
H37   H     H_    0.607728 0.261908 0.623113 0.213834
H38   H     H_    0.591699 0.276535 0.448564 0.208802
H39   H     H_    0.607728 0.738092 0.376887 0.213834
H40   H     H_    0.591699 0.723464 0.551436 0.208801
H41   H     H_    0.108566 0.413131 0.128273 0.117869
H42   H     H_    0.126186 0.443933 0.908875 0.086683
H43   H     H_    0.108566 0.586869 0.871727 0.117869
H44   H     H_    0.126186 0.556067 0.091125 0.086682
H45   H     H_    0.626186 0.943933 0.091125 0.086682
H46   H     H_    0.608566 0.913131 0.871727 0.117869
H47   H     H_    0.626186 0.056067 0.908875 0.086682
H48   H     H_    0.608566 0.086869 0.128273 0.117869
H49   H     H_    0.860592 0.461151 0.129663 0.181081
H50   H     H_    0.878210 0.428241 0.897214 0.226927
H51   H     H_    0.860592 0.538849 0.870337 0.181081
H52   H     H_    0.878210 0.571759 0.102786 0.226927
H53   H     H_    0.378210 0.928241 0.102786 0.226927
H54   H     H_    0.360592 0.961151 0.870337 0.181081
H55   H     H_    0.378210 0.071759 0.897214 0.226927
H56   H     H_    0.360592 0.038849 0.129663 0.181081
N1    N     N_3   0.998760 0.500000 0.138610 -0.127748
N2    N     N_3   0.998760 0.500000 0.861390 -0.127749
N3    N     N_3   0.498760 0.000000 0.138610 -0.127749
N4    N     N_3   0.498760 0.000000 0.861390 -0.127748
O1    O     O_R   0.092530 0.407440 0.616040 -0.635364
O2    O     O_R   0.092530 0.407440 0.383960 -0.614725
O3    O     O_R   0.092530 0.592560 0.383960 -0.635364
O4    O     O_R   0.092530 0.592560 0.616040 -0.614725
O5    O     O_R   0.592530 0.907440 0.616040 -0.614725
O6    O     O_R   0.592530 0.907440 0.383960 -0.635364
O7    O     O_R   0.592530 0.092560 0.383960 -0.614725
O8    O     O_R   0.592530 0.092560 0.616040 -0.635364
O9    O     O_R   0.907330 0.407420 0.616040 -0.602815
O10   O     O_R   0.907330 0.407420 0.383960 -0.625862
O11   O     O_R   0.907330 0.592580 0.383960 -0.602815
O12   O     O_R   0.907330 0.592580 0.616040 -0.625862
O13   O     O_R   0.407330 0.907420 0.616040 -0.625862
O14   O     O_R   0.407330 0.907420 0.383960 -0.602815
O15   O     O_R   0.407330 0.092580 0.383960 -0.625861
O16   O     O_R   0.407330 0.092580 0.616040 -0.602815
Zn1   Zn    Zn3+2 0.999890 0.500000 0.654960 0.946685
Zn2   Zn    Zn3+2 0.999890 0.500000 0.345040 0.946685
Zn3   Zn    Zn3+2 0.499890 0.000000 0.654960 0.946685
Zn4   Zn    Zn3+2 0.499890 0.000000 0.345040 0.946685
C53   C     C_2   0.704492 0.390183 0.666593 0.423310
H57   H     H_    0.763367 0.408620 0.723154 0.062452
O17   O     O_2   0.631557 0.407641 0.715743 -0.485298
C54   C     C_2   0.684182 0.410111 0.420256 0.437902
H58   H     H_    0.734033 0.438848 0.354470 0.022162
O18   O     O_2   0.605867 0.431238 0.405858 -0.457046
C55   C     C_2   0.704492 0.609817 0.333407 0.423311
H59   H     H_    0.763367 0.591380 0.276846 0.062452
O19   O     O_2   0.631557 0.592359 0.284257 -0.485298
C56   C     C_2   0.684182 0.589889 0.579744 0.437902
H60   H     H_    0.734033 0.561152 0.645530 0.022162
O20   O     O_2   0.605867 0.568762 0.594142 -0.457046
C57   C     C_2   0.184182 0.910111 0.579744 0.437902
H61   H     H_    0.234033 0.938848 0.645530 0.022163
O21   O     O_2   0.105867 0.931237 0.594143 -0.457046
C58   C     C_2   0.204492 0.890183 0.333407 0.423311
H62   H     H_    0.263367 0.908621 0.276846 0.062452
O22   O     O_2   0.131557 0.907641 0.284257 -0.485298
C59   C     C_2   0.184182 0.089889 0.420256 0.437902
H63   H     H_    0.234033 0.061152 0.354470 0.022162
O23   O     O_2   0.105867 0.068762 0.405858 -0.457047
C60   C     C_2   0.204492 0.109817 0.666593 0.423309
H64   H     H_    0.263367 0.091381 0.723155 0.062453
O24   O     O_2   0.131557 0.092359 0.715743 -0.485298
C61   C     C_2   0.991324 0.336230 0.128379 0.984014
O25   O     O_2   0.028238 0.285224 0.205090 -0.644316
O26   O     O_R   0.907885 0.314545 0.073857 -0.827468
H65   H     H_    0.888744 0.253085 0.096854 0.343840
C62   C     C_2   0.049095 0.338039 0.858664 0.992167
O27   O     O_2   0.115594 0.291590 0.861330 -0.664760
O28   O     O_R   0.968592 0.303749 0.813912 -0.789311
H66   H     H_    0.974282 0.239478 0.792863 0.340582
C63   C     C_2   0.991324 0.663770 0.871620 0.984014
O29   O     O_2   0.028238 0.714776 0.794910 -0.644316
O30   O     O_R   0.907886 0.685455 0.926143 -0.827468
H67   H     H_    0.888744 0.746915 0.903146 0.343840
C64   C     C_2   0.049095 0.661960 0.141336 0.992167
O31   O     O_2   0.115594 0.708410 0.138669 -0.664760
O32   O     O_R   0.968592 0.696251 0.186088 -0.789311
H68   H     H_    0.974283 0.760522 0.207137 0.340582
C65   C     C_2   0.549095 0.838040 0.141336 0.992167
O33   O     O_2   0.615594 0.791590 0.138670 -0.664760
O34   O     O_R   0.468592 0.803749 0.186088 -0.789311
H69   H     H_    0.474282 0.739478 0.207137 0.340582
C66   C     C_2   0.491324 0.836230 0.871621 0.984014
O35   O     O_2   0.528238 0.785224 0.794910 -0.644315
O36   O     O_R   0.407885 0.814545 0.926142 -0.827468
H70   H     H_    0.388744 0.753085 0.903146 0.343840
C67   C     C_2   0.549095 0.161960 0.858664 0.992167
O37   O     O_2   0.615594 0.208410 0.861331 -0.664760
O38   O     O_R   0.468593 0.196251 0.813912 -0.789311
H71   H     H_    0.474283 0.260522 0.792863 0.340582
C68   C     C_2   0.491324 0.163770 0.128379 0.984014
O39   O     O_2   0.528238 0.214776 0.205090 -0.644315
O40   O     O_R   0.407886 0.185455 0.073857 -0.827468
H72   H     H_    0.388744 0.246915 0.096854 0.343840

loop_
_geom_bond_atom_site_label_1
_geom_bond_atom_site_label_2
_ccdc_geom_bond_type
C16   C28   S    
C29   C53   S    
O32   H68   S    
O16   Zn3   S    
C63   O29   D    
C31   C57   S    
C28   H32   S    
O8    Zn3   S    
C6    N2    S    
C64   O31   D    
O28   H66   S    
C45   H41   S    
C14   C33   S    
C49   C65   S    
C57   H61   S    
C7    C8    S    
C12   O15   A    
C67   O37   D    
C41   H34   S    
C43   H37   S    
O1    Zn1   S    
C32   C36   S    
C17   C35   S    
C11   O13   A    
C58   O22   D    
C38   C42   S    
C10   O12   A    
C19   C36   S    
C8    N4    S    
O26   H65   S    
C5    C6    S    
C47   C63   S    
C45   N1    S    
C26   C39   S    
C68   O40   S    
C28   C40   S    
C14   H10   S    
C29   C33   S    
N2    Zn1   S    
O15   Zn4   S    
C3    O5    A    
C16   C34   S    
C2    O4    A    
C24   H28   S    
C61   O25   D    
O4    Zn1   S    
C20   C24   S    
C66   O36   S    
C46   C62   S    
C24   C38   S    
C59   H63   S    
C7    H53   S    
C4    O7    A    
C19   H15   S    
C12   C36   S    
C48   H44   S    
C18   C35   S    
C15   C34   S    
C60   O24   D    
C44   H40   S    
C49   N3    S    
C67   O38   S    
C48   N1    S    
C5    H52   S    
C63   O30   S    
C65   O33   D    
C29   C43   S    
C6    H50   S    
C25   H29   S    
O2    Zn2   S    
C30   C44   S    
C1    O1    A    
C27   H23   S    
C57   O21   D    
C18   H6    S    
O7    Zn4   S    
C13   H1    S    
C65   O34   S    
C51   H47   S    
C15   C27   S    
C5    H49   S    
C50   H46   S    
C43   H38   S    
C30   C34   S    
C51   C52   S    
C47   C48   S    
C23   H19   S    
C11   O14   A    
C45   C61   S    
C58   H62   S    
C22   H26   S    
C54   O18   D    
C10   O11   A    
O30   H67   S    
C62   O28   S    
C52   N3    S    
C19   H7    S    
C45   C46   S    
C22   C37   S    
C52   H48   S    
C17   C21   S    
O36   H70   S    
C21   H17   S    
C15   H3    S    
C19   C23   S    
O38   H71   S    
C16   H4    S    
C13   C33   S    
C7    H56   S    
C3    O6    A    
C2    O3    A    
O13   Zn3   S    
C9    O9    A    
O34   H69   S    
C46   H42   S    
C4    C39   S    
O14   Zn4   S    
C27   C40   S    
C50   C66   S    
C50   N4    S    
C9    O10   A    
C13   H9    S    
C10   C34   S    
C6    H51   S    
C14   C26   S    
C60   H64   S    
C26   H30   S    
C44   H39   S    
C1    C38   S    
C9    C33   S    
C32   C60   S    
C31   C58   S    
C14   H2    S    
C3    C40   S    
C49   C50   S    
C46   N2    S    
O11   Zn2   S    
C53   H57   S    
C31   C35   S    
C42   H36   S    
C1    O2    A    
C47   N2    S    
C8    H55   S    
C56   O20   D    
C22   H18   S    
C24   H20   S    
C64   O32   S    
C15   H11   S    
C30   C55   S    
C31   C41   S    
C18   C22   S    
C20   H16   S    
C51   C67   S    
O9    Zn1   S    
C54   H58   S    
C13   C25   S    
C8    H54   S    
C39   C43   S    
C55   H59   S    
C12   O16   A    
C18   H14   S    
C23   C38   S    
C41   H33   S    
C17   H13   S    
C30   C56   S    
C27   H31   S    
O40   H72   S    
C62   O27   D    
C25   C39   S    
C55   O19   D    
C2    C37   S    
C68   O39   D    
C32   C42   S    
C32   C59   S    
C5    N1    S    
C11   C35   S    
C26   H22   S    
C7    N3    S    
O12   Zn1   S    
C25   H21   S    
C59   O23   D    
N4    Zn3   S    
C37   C41   S    
O5    Zn3   S    
O6    Zn4   S    
C51   N4    S    
C49   H45   S    
C48   C64   S    
C20   C36   S    
N3    Zn4   S    
C40   C44   S    
C29   C54   S    
C21   C37   S    
C61   O26   S    
C66   O35   D    
C52   C68   S    
C21   H25   S    
N1    Zn2   S    
C53   O17   D    
C47   H43   S    
C56   H60   S    
C4    O8    A    
C42   H35   S    
C16   H12   S    
C23   H27   S    
C20   H8    S    
O10   Zn2   S    
C17   H5    S    
O3    Zn2   S    
C28   H24   S    
