data_str_m4_o14_o22_f0_acs.sym.109
_audit_creation_date              2012-12-11T14:22:56-0500
_audit_creation_method            fapswitch 2.2
_symmetry_space_group_name_H-M    P1
_symmetry_Int_Tables_number       1
_space_group_crystal_system       triclinic
_cell_length_a                    10.912902
_cell_length_b                    11.075447
_cell_length_c                    18.744458
_cell_angle_alpha                 90.349428
_cell_angle_beta                  89.849794
_cell_angle_gamma                 60.821125
_cell_volume                      1977.98202725

loop_
_atom_site_label
_atom_site_type_symbol
_atom_type_description
_atom_site_fract_x
_atom_site_fract_y
_atom_site_fract_z
_atom_type_partial_charge
C1    C     C_R   0.238262 0.644351 0.610414 0.576478
C2    C     C_3   0.780058 0.514238 0.792752 -0.241171
C3    C     C_3   0.703216 0.668810 0.813490 0.024211
C4    C     C_3   0.670524 0.642370 0.677964 0.054378
C5    C     C_3   0.728122 0.744115 0.688504 0.014801
C6    C     C_3   0.770900 0.499949 0.712695 -0.217084
C7    C     C_R   0.695049 0.133471 0.817806 -0.003451
C8    C     C_R   0.796602 0.152288 0.779899 0.017087
C9    C     C_R   0.798035 0.145783 0.704124 0.031488
C10   C     C_R   0.588520 0.123676 0.705775 -0.149467
C11   C     C_R   0.593994 0.116784 0.778569 -0.155917
C12   C     C_R   0.652379 0.618613 0.602157 0.605193
C13   C     C_R   0.894783 0.179877 0.814103 -0.127635
C14   C     C_R   0.001605 0.183807 0.774871 -0.160709
C15   C     C_R   0.015019 0.155589 0.701930 -0.140108
C16   C     C_R   0.913736 0.137460 0.666563 -0.078837
C17   C     C_R   0.682394 0.149834 0.668179 0.017840
C18   C     C_R   0.193553 0.667867 0.837010 -0.000018
C19   C     C_R   0.215255 0.545737 0.802351 -0.000818
C20   C     C_R   0.206740 0.542486 0.726884 0.032125
C21   C     C_R   0.191871 0.769348 0.723269 -0.125734
C22   C     C_R   0.199422 0.772465 0.796795 -0.020557
C23   C     C_R   0.631964 0.222080 0.600345 0.558398
C24   C     C_R   0.246327 0.426250 0.841897 -0.076898
C25   C     C_R   0.256379 0.309731 0.808634 -0.132601
C26   C     C_R   0.236260 0.309823 0.735638 -0.147363
C27   C     C_R   0.207608 0.425597 0.695267 -0.058232
C28   C     C_R   0.198420 0.655611 0.686756 0.019935
C29   C     C_R   0.633840 0.638312 0.155368 0.022849
C30   C     C_R   0.729761 0.517444 0.190680 0.058956
C31   C     C_R   0.747576 0.530157 0.264293 -0.007979
C32   C     C_R   0.506060 0.711618 0.268171 -0.150455
C33   C     C_R   0.512180 0.726425 0.193211 -0.171868
C34   C     C_R   0.213853 0.651319 0.404612 0.541529
C35   C     C_R   0.831819 0.401121 0.152926 0.178199
C36   C     C_R   0.968040 0.337962 0.177821 -0.099941
C37   C     C_R   0.994798 0.373298 0.245147 -0.193852
C38   C     C_R   0.885709 0.461589 0.290139 -0.118799
C39   C     C_R   0.628320 0.619347 0.306057 -0.007700
C40   C     C_R   0.669022 0.107266 0.184080 0.009076
C41   C     C_R   0.556688 0.112321 0.223337 0.023727
C42   C     C_R   0.507040 0.198686 0.283284 0.052199
C43   C     C_R   0.708456 0.238025 0.275363 -0.157340
C44   C     C_R   0.744986 0.168663 0.211087 -0.113133
C45   C     C_R   0.621587 0.596123 0.384689 0.541409
C46   C     C_R   0.493273 0.032173 0.204893 -0.095551
C47   C     C_R   0.379966 0.042408 0.243122 -0.128785
C48   C     C_R   0.325715 0.132795 0.299474 -0.137687
C49   C     C_R   0.379198 0.219646 0.314487 -0.084993
C50   C     C_R   0.593232 0.250322 0.313116 0.000780
C51   C     C_R   0.115570 0.698110 0.193283 0.000456
C52   C     C_R   0.097796 0.812254 0.237388 0.031592
C53   C     C_R   0.073166 0.809629 0.310896 0.030805
C54   C     C_R   0.131720 0.572325 0.300817 -0.153804
C55   C     C_R   0.127296 0.580571 0.226636 -0.147446
C56   C     C_R   0.578810 0.292982 0.387623 0.545095
C57   C     C_R   0.111287 0.925570 0.213411 -0.107376
C58   C     C_R   0.077829 0.037765 0.258217 -0.167788
C59   C     C_R   0.028026 0.043937 0.326853 -0.115213
C60   C     C_R   0.024243 0.929850 0.353386 -0.060082
C61   C     C_R   0.121977 0.681669 0.342314 0.000594
C62   C     C_R   0.704224 0.097492 0.894230 0.561490
C63   C     C_R   0.723650 0.686692 0.889118 0.553010
C64   C     C_R   0.121655 0.705812 0.906888 0.539641
C65   C     C_R   0.697426 0.051462 0.112159 0.555868
C66   C     C_R   0.689689 0.684047 0.093504 0.554147
C67   C     C_3   0.546701 0.728296 0.796927 -0.262876
C68   C     C_R   0.084587 0.716092 0.116050 0.535823
C69   C     C_3   0.527682 0.702656 0.718185 -0.259128
C70   C     C_3   0.766029 0.743280 0.767975 -0.196050
Cr1   Cr    Cr6+3 0.392940 0.397950 0.502230 1.002005
Cr2   Cr    Cr6+3 0.398400 0.708500 0.501260 1.014109
Cr3   Cr    Cr6+3 0.708640 0.393530 0.496460 1.001361
Cr4   Cr    Cr6+3 0.937880 0.938320 0.007620 1.033151
Cr5   Cr    Cr6+3 0.625560 0.937220 0.994510 0.998942
Cr6   Cr    Cr6+3 0.938080 0.625010 0.001190 1.037839
H1    H     H_    0.491674 0.841400 0.808038 0.126699
H2    H     H_    0.878163 0.456120 0.689169 0.181603
H3    H     H_    0.882068 0.689579 0.774497 0.167657
H4    H     H_    0.504563 0.116055 0.679138 0.134810
H5    H     H_    0.889610 0.200343 0.870768 0.155485
H6    H     H_    0.519549 0.092297 0.803512 0.142382
H7    H     H_    0.077579 0.202405 0.802223 0.116051
H8    H     H_    0.102307 0.149232 0.671863 0.101040
H9    H     H_    0.927809 0.114943 0.609953 0.138684
H10   H     H_    0.190241 0.854282 0.694177 0.150381
H11   H     H_    0.502283 0.677410 0.831268 0.131182
H12   H     H_    0.267116 0.420766 0.898551 0.136374
H13   H     H_    0.280422 0.218806 0.839664 0.102363
H14   H     H_    0.246802 0.218097 0.709857 0.090390
H15   H     H_    0.183029 0.421453 0.640018 0.170961
H16   H     H_    0.408792 0.775568 0.296605 0.154458
H17   H     H_    0.424668 0.804139 0.163922 0.107968
H18   H     H_    0.053185 0.262995 0.144880 0.127973
H19   H     H_    0.100357 0.330607 0.262758 0.111478
H20   H     H_    0.486484 0.628610 0.714399 0.133704
H21   H     H_    0.913424 0.484334 0.341744 0.164143
H22   H     H_    0.773279 0.278141 0.296823 0.145431
H23   H     H_    0.533353 0.957492 0.162974 0.158358
H24   H     H_    0.834557 0.161422 0.182900 0.179675
H25   H     H_    0.331477 0.982831 0.228463 0.107511
H26   H     H_    0.238002 0.140379 0.330037 0.107865
H27   H     H_    0.321441 0.297202 0.353904 0.147832
H28   H     H_    0.145925 0.480513 0.326352 0.108956
H29   H     H_    0.158474 0.926263 0.162935 0.144005
H30   H     H_    0.137198 0.494245 0.195080 0.149550
H31   H     H_    0.448712 0.802002 0.694218 0.127995
H32   H     H_    0.097095 0.116961 0.240017 0.117834
H33   H     H_    0.000999 0.133157 0.360650 0.119579
H34   H     H_    0.995431 0.930442 0.408828 0.137625
H35   H     H_    0.726263 0.850529 0.787185 0.122608
H36   H     H_    0.644492 0.849741 0.674370 0.135987
H37   H     H_    0.893113 0.463781 0.807216 0.162605
H38   H     H_    0.731231 0.460316 0.821243 0.137619
H39   H     H_    0.731904 0.425614 0.702333 0.143703
O1    O     O_R   0.507340 0.255690 0.581430 -0.517679
O2    O     O_R   0.524510 0.695820 0.424050 -0.480010
O3    O     O_R   0.736370 0.504260 0.414810 -0.529123
O4    O     O_R   0.691220 0.277270 0.422180 -0.511976
O5    O     O_3   0.499990 0.499990 0.499980 -0.290066
O6    O     O_R   0.089570 0.825450 0.930590 -0.526108
O7    O     O_R   0.818700 0.054260 0.929860 -0.484449
O8    O     O_R   0.606310 0.077010 0.915520 -0.528289
O9    O     O_R   0.646730 0.806540 0.917560 -0.517639
O10   O     O_R   0.837290 0.593240 0.915240 -0.505813
O11   O     O_R   0.065320 0.635310 0.931580 -0.507499
O12   O     O_R   0.280360 0.527380 0.578910 -0.504045
O13   O     O_R   0.068470 0.828620 0.091850 -0.541516
O14   O     O_R   0.799150 0.057200 0.079350 -0.464320
O15   O     O_R   0.585220 0.080180 0.076770 -0.511426
O16   O     O_R   0.627170 0.809480 0.067050 -0.542238
O17   O     O_R   0.816200 0.596410 0.076500 -0.471491
O18   O     O_R   0.045770 0.638240 0.081070 -0.496956
O19   O     O_3   0.833840 0.833520 0.001110 -0.276434
O20   O     O_R   0.260600 0.739610 0.584580 -0.532232
O21   O     O_R   0.532370 0.695050 0.573830 -0.506485
O22   O     O_R   0.744850 0.503430 0.576380 -0.499838
O23   O     O_R   0.699080 0.276500 0.571950 -0.518007
O24   O     O_R   0.498860 0.256520 0.419860 -0.521453
O25   O     O_R   0.272490 0.528150 0.429140 -0.529462
O26   O     O_R   0.252110 0.740440 0.423010 -0.523631
Br1   Br    Br    0.886005 0.705897 0.626085 -0.589809
C71   C     C_3   0.218825 0.886489 0.830405 -0.370995
H40   H     H_    0.295464 0.845602 0.874575 0.134320
H41   H     H_    0.255528 0.936442 0.791042 0.095650
H42   H     H_    0.119722 0.967703 0.853015 0.187911
Br2   Br    Br    0.793915 0.345668 0.061508 -0.521549

loop_
_geom_bond_atom_site_label_1
_geom_bond_atom_site_label_2
_ccdc_geom_bond_type
C45   O3    A    
C71   H42   S    
C57   H29   S    
C46   H23   S    
C34   O26   A    
C8    C13   A    
C47   H25   S    
C29   C33   A    
Cr6   O11   S    
C41   C42   A    
C23   O23   A    
C35   C36   A    
C67   H1    S    
C43   H22   S    
C69   H20   S    
C65   O15   A    
C69   H31   S    
Cr5   O19   S    
C7    C8    A    
C7    C11   A    
C26   C27   A    
C17   C23   S    
Cr1   O5    S    
Cr5   O8    S    
C54   H28   S    
C36   C37   A    
C9    C16   A    
C71   H40   S    
C30   C31   A    
C2    H37   S    
Cr3   O4    S    
Cr2   O21   S    
Cr3   O23   S    
C10   C17   A    
C64   O6    A    
C13   H5    S    
C37   H19   S    
C18   C19   A    
C32   C39   A    
C62   O8    A    
C23   O1    A    
C54   C55   A    
C53   C61   A    
Cr4   O13   S    
C19   C20   A    
C8    C9    A    
C22   C71   S    
C1    C28   S    
C41   C46   A    
C27   H15   S    
C4    C12   S    
C68   O13   A    
C58   H32   S    
Cr1   O25   S    
Cr5   O15   S    
C39   C45   S    
C68   O18   A    
C59   C60   A    
Cr3   O5    S    
C21   C22   A    
Cr6   O10   S    
Cr1   O12   S    
C2    C6    S    
C14   H7    S    
C38   H21   S    
C4    C69   S    
C53   C60   A    
Cr5   O16   S    
C63   O9    A    
C66   O17   A    
C11   H6    S    
Cr2   O26   S    
C54   C61   A    
C55   H30   S    
Cr5   O9    S    
C3    C70   S    
C60   H34   S    
C24   C25   A    
C4    C6    S    
C52   C57   A    
C56   O24   A    
Cr6   O19   S    
C44   H24   S    
Cr2   O20   S    
Cr1   O24   S    
C20   C28   A    
C58   C59   A    
C34   C61   S    
C50   C56   S    
C51   C52   A    
C67   C69   S    
Cr2   O2    S    
C43   C44   A    
C7    C62   S    
C49   H27   S    
C29   C30   A    
C47   C48   A    
C14   C15   A    
C48   H26   S    
Cr2   O5    S    
C35   Br2   S    
C24   H12   S    
C63   O10   A    
C42   C50   A    
C30   C35   A    
C9    C17   A    
C40   C41   A    
Cr4   O7    S    
C21   C28   A    
C37   C38   A    
C64   O11   A    
C40   C65   S    
C16   H9    S    
C56   O4    A    
C62   O7    A    
C52   C53   A    
C66   O16   A    
C45   O2    A    
C71   H41   S    
C46   C47   A    
C48   C49   A    
C10   H4    S    
Cr3   O3    S    
C70   H3    S    
C18   C22   A    
C25   H13   S    
C3    C67   S    
C1    O12   A    
C4    C5    S    
C5    C70   S    
C33   H17   S    
C21   H10   S    
C65   O14   A    
Cr6   O18   S    
C43   C50   A    
C15   H8    S    
C20   C27   A    
C3    C63   S    
C26   H14   S    
C5    H36   S    
C67   H11   S    
C70   H35   S    
C31   C38   A    
C32   C33   A    
C19   C24   A    
C25   C26   A    
C1    O20   A    
Cr6   O17   S    
C2    H38   S    
C18   C64   S    
C5    Br1   S    
C32   H16   S    
Cr3   O22   S    
Cr4   O19   S    
C34   O25   A    
C59   H33   S    
C31   C39   A    
Cr1   O1    S    
C2    C3    S    
C51   C55   A    
C51   C68   S    
C6    H39   S    
C6    H2    S    
C10   C11   A    
C42   C49   A    
C29   C66   S    
C36   H18   S    
C40   C44   A    
Cr4   O6    S    
C12   O21   A    
Cr4   O14   S    
C12   O22   A    
C57   C58   A    
C13   C14   A    
C15   C16   A    
