data_str_m9_o2_o17_f0_sra.sym.29
_audit_creation_date              2012-12-11T16:26:26-0500
_audit_creation_method            fapswitch 2.2
_symmetry_space_group_name_H-M    P1
_symmetry_Int_Tables_number       1
_space_group_crystal_system       triclinic
_cell_length_a                    6.934242
_cell_length_b                    17.51037
_cell_length_c                    19.504245
_cell_angle_alpha                 108.66846
_cell_angle_beta                  89.588836
_cell_angle_gamma                 90.527191
_cell_volume                      2243.50991857

loop_
_atom_site_label
_atom_site_type_symbol
_atom_type_description
_atom_site_fract_x
_atom_site_fract_y
_atom_site_fract_z
_atom_type_partial_charge
O1    O     O_R   0.494330 0.415720 0.413720 -0.546593
O2    O     O_R   0.819330 0.430070 0.560210 -0.525806
O3    O     O_R   0.994320 0.584280 0.586280 -0.546067
C1    C     C_R   0.650325 0.415653 0.582391 0.791141
O4    O     O_R   0.823730 0.406300 0.412670 -0.520792
O5    O     O_R   0.998760 0.560340 0.437690 -0.550882
C2    C     C_R   0.654798 0.382714 0.385539 0.815759
O6    O     O_R   0.489890 0.439660 0.562310 -0.551391
O7    O     O_3   0.662340 0.550560 0.508380 -0.365648
V1    V     V_3+5 0.935370 0.490620 0.498450 1.499949
O8    O     O_R   0.328750 0.569930 0.439790 -0.507692
C3    C     C_R   0.160742 0.585567 0.418566 0.751876
O9    O     O_R   0.324340 0.593700 0.587330 -0.539389
C4    C     C_R   0.155398 0.616708 0.614850 0.679436
V2    V     V_3+5 0.435940 0.509380 0.501550 1.509517
O10   O     O_3   0.159100 0.449440 0.491620 -0.370513
H1    H     H_    0.897170 0.855657 0.569585 0.149732
C5    C     C_R   0.278767 0.599641 0.750541 -0.141841
C6    C     C_R   0.337688 0.589165 0.815061 -0.076164
C7    C     C_R   0.325488 0.652562 0.879643 -0.124574
C8    C     C_R   0.254221 0.726916 0.880212 -0.140679
C9    C     C_R   0.194638 0.739635 0.815463 0.068838
C10   C     C_R   0.207254 0.674667 0.749246 0.056743
C11   C     C_R   0.120206 0.815070 0.816131 -0.163737
C12   C     C_R   0.058872 0.825613 0.750490 0.024889
C13   C     C_R   0.071290 0.760622 0.684335 0.061483
C14   C     C_R   0.145437 0.685111 0.683667 -0.158760
C15   C     C_R   0.988283 0.900805 0.749205 -0.131529
C16   C     C_R   0.929899 0.911863 0.684371 0.255621
C17   C     C_R   0.941708 0.847723 0.619976 -0.094160
C18   C     C_R   0.012024 0.773324 0.619625 -0.171800
H2    H     H_    0.288971 0.548083 0.701969 0.111527
H3    H     H_    0.392137 0.531367 0.814955 0.154875
H4    H     H_    0.370456 0.643985 0.929698 0.117284
H5    H     H_    0.245185 0.773916 0.932033 0.094545
H6    H     H_    0.979285 0.951807 0.798262 0.137641
H7    H     H_    0.020658 0.726197 0.567867 0.126989
C19   C     C_R   0.991154 0.631231 0.325589 -0.267773
C20   C     C_R   0.153204 0.635819 0.369934 -0.204040
C21   C     C_R   0.307111 0.688109 0.367068 0.550656
C22   C     C_R   0.298890 0.735103 0.320603 -0.024174
C23   C     C_R   0.136623 0.729224 0.275800 0.005425
C24   C     C_R   0.982498 0.676993 0.278296 0.098829
C25   C     C_R   0.450099 0.788067 0.318099 -0.140588
C26   C     C_R   0.442143 0.833832 0.271219 -0.132830
C27   C     C_R   0.282637 0.827878 0.225778 -0.017437
C28   C     C_R   0.128473 0.775656 0.228368 0.022804
C29   C     C_R   0.966229 0.769721 0.183607 0.111034
C30   C     C_R   0.814463 0.717116 0.186264 -0.170832
C31   C     C_R   0.822478 0.671198 0.233174 -0.156271
C32   C     C_R   0.274755 0.873206 0.177960 0.575844
C33   C     C_R   0.112957 0.867544 0.132915 -0.186231
C34   C     C_R   0.958779 0.816128 0.136767 -0.255800
H8    H     H_    0.872468 0.591007 0.327049 0.163707
H9    H     H_    0.576016 0.793889 0.352007 0.198790
H10   H     H_    0.562257 0.873464 0.270299 0.234281
H11   H     H_    0.833801 0.811318 0.102508 0.162812
H12   H     H_    0.688904 0.711696 0.152220 0.125117
H13   H     H_    0.702888 0.631340 0.234363 0.125574
C35   C     C_R   0.782541 0.180840 0.865261 -0.263920
C36   C     C_R   0.621895 0.131633 0.866438 -0.206010
C37   C     C_R   0.466625 0.128419 0.819006 0.561137
C38   C     C_R   0.471021 0.174472 0.771656 0.018762
C39   C     C_R   0.631239 0.224923 0.772027 -0.023365
C40   C     C_R   0.787292 0.228070 0.818995 0.004770
C41   C     C_R   0.317712 0.171287 0.724008 -0.137389
C42   C     C_R   0.321580 0.218337 0.678024 -0.140674
C43   C     C_R   0.478707 0.269539 0.678620 0.165721
C44   C     C_R   0.635180 0.272480 0.725450 0.007253
C45   C     C_R   0.795262 0.323053 0.725892 -0.029451
C46   C     C_R   0.948819 0.326425 0.773574 0.589174
C47   C     C_R   0.944715 0.279141 0.819449 -0.231248
C48   C     C_R   0.482195 0.317571 0.633042 -0.140889
C49   C     C_R   0.642512 0.366978 0.632187 -0.101920
C50   C     C_R   0.798450 0.369200 0.678695 -0.175274
H14   H     H_    0.902270 0.183622 0.901457 0.170570
H15   H     H_    0.193297 0.132955 0.722593 0.169613
H16   H     H_    0.200569 0.215114 0.642324 0.126675
H17   H     H_    0.361963 0.315263 0.597177 0.133092
H18   H     H_    0.921629 0.407738 0.678579 0.170298
H19   H     H_    0.065220 0.282485 0.855400 0.157470
H20   H     H_    0.825865 0.124308 0.424050 0.177790
C51   C     C_R   0.545976 0.407651 0.252206 -0.162931
C52   C     C_R   0.491622 0.422083 0.188870 -0.114245
C53   C     C_R   0.478812 0.358697 0.124338 -0.109259
C54   C     C_R   0.520579 0.280441 0.122644 -0.149467
C55   C     C_R   0.574839 0.263775 0.186233 0.078045
C56   C     C_R   0.587453 0.328603 0.252470 0.051343
C57   C     C_R   0.620617 0.184409 0.184189 -0.113357
C58   C     C_R   0.679186 0.169663 0.248363 -0.092903
C59   C     C_R   0.688641 0.234099 0.315313 -0.048811
C60   C     C_R   0.643887 0.313989 0.317027 -0.158154
C61   C     C_R   0.725708 0.090649 0.247216 -0.199821
C62   C     C_R   0.780380 0.075067 0.309844 0.606601
C63   C     C_R   0.786229 0.137124 0.375272 -0.251857
C64   C     C_R   0.739802 0.215597 0.378804 0.515951
H21   H     H_    0.556295 0.459397 0.300624 0.101017
H22   H     H_    0.460346 0.482899 0.189849 0.110326
H23   H     H_    0.437565 0.370260 0.075163 0.117746
H24   H     H_    0.511287 0.233481 0.070811 0.093697
H25   H     H_    0.719737 0.039753 0.198022 0.191765
O11   O     O_R   0.775200 0.060470 0.937800 -0.549515
O12   O     O_R   0.441110 0.093720 0.087350 -0.535596
O13   O     O_R   0.266330 0.939630 0.062280 -0.507784
C65   C     C_R   0.609888 0.116714 0.114926 0.703918
O14   O     O_R   0.445750 0.069950 0.939820 -0.509945
O15   O     O_R   0.271000 0.915700 0.913700 -0.531066
C66   C     C_R   0.614573 0.084077 0.917336 0.752708
O16   O     O_R   0.770530 0.084400 0.086380 -0.545118
O17   O     O_3   0.602830 0.949510 0.991680 -0.368240
V3    V     V_3+5 0.329710 0.009370 0.001550 1.536496
O18   O     O_R   0.940990 0.906170 0.912570 -0.548345
C67   C     C_R   0.109998 0.883325 0.885030 0.700708
O19   O     O_R   0.936350 0.929940 0.060100 -0.546051
C68   C     C_R   0.104442 0.915578 0.082398 0.752761
V4    V     V_3+5 0.829160 0.990450 0.998310 1.465186
O20   O     O_3   0.105910 0.050480 0.008320 -0.371720
F1    F     F_    0.463348 0.694598 0.410360 -0.693224
F2    F     F_    0.423131 0.924010 0.176540 -0.697588
F3    F     F_    0.312611 0.079363 0.817883 -0.710168
F4    F     F_    0.103220 0.375476 0.775921 -0.709496
F5    F     F_    0.825981 0.998993 0.307127 -0.673759
F6    F     F_    0.742239 0.271865 0.445313 -0.704322
N1    N     N_3   0.857502 0.987929 0.683037 -0.647976
H26   H     H_    0.955865 0.010925 0.653639 0.232312
H27   H     H_    0.853263 0.029320 0.735327 0.239228

loop_
_geom_bond_atom_site_label_1
_geom_bond_atom_site_label_2
_ccdc_geom_bond_type
C21   F1    S    
C55   C56   A    
C61   C62   A    
C48   C49   A    
C63   C64   A    
C1    O6    A    
O19   C68   A    
C53   C54   A    
C25   C26   A    
C12   C15   A    
C13   C14   A    
C37   C38   A    
C51   C52   A    
C31   H13   S    
C15   C16   A    
O5    C3    A    
C17   C18   A    
V2    O10   S    
C16   N1    S    
V4    O20   S    
O12   V3    S    
C5    C6    A    
C22   C23   A    
C36   C66   S    
O17   V3    S    
O15   C67   A    
O16   V4    S    
C59   C64   A    
O8    V2    S    
C56   C60   A    
C26   H10   S    
C43   C44   A    
C32   F2    S    
O11   C66   A    
C45   C46   A    
O1    V2    S    
C10   C14   A    
C4    C14   S    
C54   H24   S    
C50   H18   S    
C37   F3    S    
C47   H19   S    
C7    H4    S    
C36   C37   A    
C41   C42   A    
C38   C41   A    
C11   C67   S    
C8    C9    A    
H1    C17   S    
C62   C63   A    
C42   H16   S    
O15   V3    S    
O4    V1    S    
O18   C67   A    
O14   V3    S    
C29   C34   A    
C49   C50   A    
C42   C43   A    
C11   C12   A    
C6    H3    S    
C61   H25   S    
C59   C60   A    
O4    C2    A    
C34   H11   S    
C54   C55   A    
C43   C48   A    
C26   C27   A    
C27   C32   A    
C35   H14   S    
C30   H12   S    
C32   C33   A    
C35   C36   A    
O2    C1    A    
C16   C17   A    
C53   H23   S    
O13   C68   A    
C28   C29   A    
C19   H8    S    
C48   H17   S    
O12   C65   A    
C39   C44   A    
C52   C53   A    
O3    C4    A    
C62   F5    S    
C21   C22   A    
C35   C40   A    
O6    V2    S    
O9    V2    S    
C22   C25   A    
C9    C11   A    
C5    H2    S    
C23   C24   A    
O2    V1    S    
O17   V4    S    
O18   V4    S    
C33   C34   A    
C58   C61   A    
N1    H27   S    
O7    V1    S    
C33   C68   S    
C41   H15   S    
C65   O16   A    
C27   C28   A    
C29   C30   A    
H20   C63   S    
C64   F6    S    
O1    C2    A    
C1    C49   S    
C46   F4    S    
O5    V1    S    
O13   V3    S    
O19   V4    S    
O8    C3    A    
C24   C31   A    
C8    H5    S    
C40   C47   A    
V3    O20   S    
C52   H22   S    
C39   C40   A    
C6    C7    A    
C55   C57   A    
C12   C13   A    
C19   C24   A    
O3    V1    S    
V1    O10   S    
C25   H9    S    
C58   C59   A    
C19   C20   A    
O14   C66   A    
C3    C20   S    
C5    C10   A    
C2    C60   S    
C51   C56   A    
C23   C28   A    
O7    V2    S    
C44   C45   A    
O11   V4    S    
C38   C39   A    
C20   C21   A    
C18   H7    S    
C13   C18   A    
C46   C47   A    
C7    C8    A    
C15   H6    S    
C30   C31   A    
C51   H21   S    
C57   C65   S    
C45   C50   A    
C9    C10   A    
C57   C58   A    
O9    C4    A    
N1    H26   S    
