data_str_m3_o5_o29_f0_pcu.sym.40
_audit_creation_date              2013-03-05T16:48:42-0500
_audit_creation_method            fapswitch 2.2
_symmetry_space_group_name_H-M    P1
_symmetry_Int_Tables_number       1
_space_group_crystal_system       triclinic
_cell_length_a                    27.903132
_cell_length_b                    8.912953
_cell_length_c                    8.079206
_cell_angle_alpha                 90.35851
_cell_angle_beta                  90.493609
_cell_angle_gamma                 89.983023
_cell_volume                      2009.17895358

loop_
_atom_site_label
_atom_site_type_symbol
_atom_site_description
_atom_site_fract_x
_atom_site_fract_y
_atom_site_fract_z
_atom_type_partial_charge
O1    O     O_R   0.500000 0.285350 0.636850 -0.619155
O2    O     O_R   0.500000 0.714650 0.363150 -0.619163
O3    O     O_R   0.500000 0.714650 0.636850 -0.603960
O4    O     O_R   0.500000 0.285350 0.363150 -0.604068
C1    C     C_R   0.500002 0.217928 0.499666 0.934447
C2    C     C_R   0.499999 0.782072 0.500334 0.934467
O5    O     O_R   0.428760 0.500000 0.636860 -0.574387
O6    O     O_R   0.571240 0.500000 0.363140 -0.574325
O7    O     O_R   0.571240 0.500000 0.636860 -0.576425
O8    O     O_R   0.428760 0.500000 0.363140 -0.576228
C3    C     C_R   0.405652 0.499592 0.499185 0.952533
C4    C     C_R   0.594345 0.500507 0.500836 0.952761
Zn1   Zn    Zn3+2 0.500000 0.500000 0.682780 1.111155
Zn2   Zn    Zn3+2 0.500000 0.500000 0.317220 1.111171
C5    C     C_R   0.176906 0.375283 0.445428 0.592463
C6    C     C_R   0.823128 0.623353 0.556988 0.592360
C7    C     C_R   0.177357 0.634656 0.519450 0.589864
C8    C     C_R   0.822571 0.363922 0.483237 0.589890
O9    O     O_2   0.201782 0.246884 0.424740 -0.421941
O10   O     O_2   0.798350 0.752064 0.576809 -0.421600
O11   O     O_2   0.202886 0.761837 0.540505 -0.424240
O12   O     O_2   0.796971 0.236944 0.461763 -0.424513
N1    N     N_R   0.200948 0.504257 0.484297 -0.356566
N2    N     N_R   0.799030 0.494566 0.517783 -0.356533
C9    C     C_R   0.276896 0.549131 0.630967 -0.102098
C10   C     C_R   0.723178 0.449932 0.370294 -0.102035
C11   C     C_R   0.277734 0.454211 0.350076 -0.098655
C12   C     C_R   0.722151 0.545813 0.650783 -0.098504
C13   C     C_R   0.326691 0.551278 0.635282 0.353190
C14   C     C_R   0.673379 0.448306 0.365401 0.352775
C15   C     C_R   0.327459 0.448319 0.353911 0.353648
C16   C     C_R   0.672443 0.552181 0.646335 0.353569
C17   C     C_R   0.252308 0.502721 0.488380 0.125081
C18   C     C_R   0.747672 0.496529 0.513010 0.124952
C19   C     C_R   0.101444 0.504747 0.485377 -0.156910
C20   C     C_R   0.898538 0.493232 0.518710 -0.156956
C21   C     C_R   0.126715 0.375474 0.432401 -0.108891
C22   C     C_R   0.873286 0.622680 0.571224 -0.108733
C23   C     C_R   0.127078 0.636199 0.531136 -0.112421
C24   C     C_R   0.872875 0.361948 0.472574 -0.112433
C25   C     C_R   0.101002 0.251645 0.368610 0.480058
C26   C     C_R   0.898984 0.746197 0.635794 0.479842
C27   C     C_R   0.101553 0.764049 0.584703 0.475039
C28   C     C_R   0.898399 0.233865 0.419666 0.475175
C29   C     C_R   0.352876 0.499340 0.496483 -0.264655
C30   C     C_R   0.647115 0.500815 0.503749 -0.264351
H1    H     H_    0.258544 0.418356 0.239547 0.204820
H2    H     H_    0.741262 0.581913 0.761388 0.205030
H3    H     H_    0.257027 0.586167 0.738403 0.202916
H4    H     H_    0.743119 0.412353 0.263223 0.203027
C31   C     C_R   0.974511 0.367125 0.455153 0.023934
C32   C     C_R   0.025477 0.630493 0.549883 0.023970
C33   C     C_R   0.974780 0.625902 0.563182 0.024546
C34   C     C_R   0.025215 0.371687 0.441907 0.024512
C35   C     C_R   0.949424 0.495463 0.512076 0.087099
C36   C     C_R   0.050565 0.502244 0.492708 0.087085
C37   C     C_R   0.948009 0.236849 0.415080 -0.259659
C38   C     C_R   0.051958 0.760819 0.589898 -0.259744
C39   C     C_R   0.948583 0.746234 0.631940 -0.258939
C40   C     C_R   0.051409 0.251298 0.373275 -0.258624
H5    H     H_    0.964667 0.132701 0.380238 0.175967
H6    H     H_    0.035286 0.864863 0.625042 0.176014
H7    H     H_    0.965480 0.842076 0.688954 0.178683
H8    H     H_    0.034512 0.155163 0.316881 0.178581
C41   C     C_1   0.500001 0.065210 0.499520 -0.123052
C42   C     C_1   0.500000 0.934790 0.500480 -0.122970
N3    N     N_1   0.500000 0.500000 0.073640 0.032137
N4    N     N_1   0.500000 0.500000 0.926360 0.032174
Cl1   Cl    Cl    0.355128 0.369144 0.178059 -0.478425
Cl2   Cl    Cl    0.644673 0.632459 0.821469 -0.478558
Cl3   Cl    Cl    0.353566 0.626953 0.815957 -0.479577
Cl4   Cl    Cl    0.646573 0.372616 0.184606 -0.480067
Cl5   Cl    Cl    0.127887 0.097763 0.265697 -0.440205
Cl6   Cl    Cl    0.872037 0.899951 0.738721 -0.440572
Cl7   Cl    Cl    0.128620 0.931524 0.657967 -0.437661
Cl8   Cl    Cl    0.871325 0.066380 0.346456 -0.437142

loop_
_geom_bond_atom_site_label_1
_geom_bond_atom_site_label_2
_geom_bond_distance
_ccdc_geom_bond_type
C38   H6    1.075038 S    
O3    C2    1.259321 A    
C33   C39   1.411474 A    
C34   C40   1.411429 A    
C11   C17   1.395083 A    
O5    C3    1.280855 A    
C7    N1    1.365077 A    
C2    C42   1.361159 S    
O1    C1    1.257456 A    
C19   C21   1.416523 A    
C22   C26   1.408951 A    
C10   H4    1.083809 S    
C7    C23   1.406986 A    
C28   Cl8   1.769432 S    
C8    C24   1.407122 A    
C5    C21   1.403529 A    
C20   C24   1.418217 A    
O7    Zn1   2.025280 S    
C27   C38   1.385184 A    
C5    O9    1.348538 S    
C10   C18   1.396306 A    
N1    C17   1.433269 S    
Zn2   N3    1.967933 S    
C31   C37   1.411240 A    
O3    Zn1   1.951098 S    
C6    O10   1.348640 S    
C5    N1    1.364699 A    
C12   C18   1.395131 A    
C6    N2    1.364660 A    
C21   C25   1.409072 A    
O2    C2    1.257457 A    
C33   C35   1.418484 A    
C9    C13   1.389702 A    
C34   C36   1.418585 A    
C26   Cl6   1.769398 S    
C11   C15   1.388539 A    
N3    N4    1.189905 T    
C12   C16   1.388321 A    
C4    C30   1.472431 S    
O8    Zn2   2.025283 S    
C16   Cl2   1.766446 S    
N2    C18   1.433346 S    
C13   C29   1.418831 A    
C19   C23   1.418264 A    
C15   Cl1   1.765958 S    
O5    Zn1   2.018999 S    
C28   C37   1.385354 A    
O6    C4    1.280960 A    
C32   C38   1.411190 A    
C1    C41   1.361159 S    
C10   C14   1.389858 A    
C8    N2    1.365246 A    
C3    C29   1.472575 S    
O1    Zn1   1.946540 S    
C32   C33   1.420237 A    
C27   Cl7   1.769419 S    
C11   H1    1.083768 S    
C12   H2    1.083835 S    
O6    Zn2   2.018996 S    
C19   C36   1.421619 A    
C8    O12   1.348007 S    
C16   C30   1.419751 A    
C14   C30   1.418727 A    
C25   C40   1.384645 A    
O4    C1    1.259322 A    
C26   C39   1.384586 A    
C14   Cl4   1.765595 S    
C37   H5    1.075031 S    
C39   H7    1.075071 S    
C40   H8    1.075042 S    
C31   C34   1.420366 A    
C20   C22   1.416401 A    
C20   C35   1.421506 A    
C31   C35   1.417190 A    
O4    Zn2   1.951099 S    
O2    Zn2   1.946539 S    
O7    C4    1.278938 A    
C9    H3    1.083681 S    
O8    C3    1.279110 A    
C25   Cl5   1.769474 S    
C24   C28   1.411324 A    
C23   C27   1.411280 A    
C41   C42   1.162503 T    
C15   C29   1.419913 A    
C9    C17   1.396235 A    
C32   C36   1.417237 A    
C6    C22   1.403315 A    
C13   Cl3   1.765552 S    
Zn1   N4    1.967933 S    
C7    O11   1.348070 S    
