data_str_m2_o5_o29_f0_pcu.sym.79
_audit_creation_date              2013-03-05T16:36:15-0500
_audit_creation_method            fapswitch 2.2
_symmetry_space_group_name_H-M    P1
_symmetry_Int_Tables_number       1
_space_group_crystal_system       triclinic
_cell_length_a                    27.790009
_cell_length_b                    9.156809
_cell_length_c                    7.775861
_cell_angle_alpha                 90.005048
_cell_angle_beta                  90.0
_cell_angle_gamma                 89.999983
_cell_volume                      1978.70626925

loop_
_atom_site_label
_atom_site_type_symbol
_atom_site_description
_atom_site_fract_x
_atom_site_fract_y
_atom_site_fract_z
_atom_type_partial_charge
O1    O     O_R   0.500000 0.288390 0.642760 -0.575023
O2    O     O_R   0.500000 0.711610 0.357240 -0.575023
O3    O     O_R   0.500000 0.711610 0.642760 -0.574959
O4    O     O_R   0.500000 0.288390 0.357240 -0.574959
C1    C     C_R   0.500000 0.219884 0.499995 0.849510
C2    C     C_R   0.500000 0.780116 0.500005 0.849510
O5    O     O_R   0.430260 0.500000 0.642770 -0.585724
O6    O     O_R   0.569740 0.500000 0.357230 -0.585713
O7    O     O_R   0.569740 0.500000 0.642770 -0.585713
O8    O     O_R   0.430260 0.500000 0.357230 -0.585724
C3    C     C_R   0.407131 0.500000 0.500000 0.797418
C4    C     C_R   0.592868 0.500000 0.500000 0.797411
Cu1   Cu    Cu3+1 0.500000 0.500000 0.669080 1.009665
Cu2   Cu    Cu3+1 0.500000 0.500000 0.330920 1.009665
C5    C     C_R   0.177512 0.372843 0.466691 0.563954
C6    C     C_R   0.822505 0.627187 0.466875 0.563857
C7    C     C_R   0.177512 0.627156 0.533310 0.563954
C8    C     C_R   0.822505 0.372814 0.533125 0.563857
O9    O     O_2   0.202390 0.249192 0.434757 -0.516313
O10   O     O_2   0.797634 0.750899 0.435215 -0.516462
O11   O     O_2   0.202390 0.750807 0.565243 -0.516313
O12   O     O_2   0.797634 0.249101 0.564786 -0.516461
N1    N     N_R   0.201605 0.500000 0.500000 -0.475317
N2    N     N_R   0.798404 0.500000 0.500000 -0.475189
C9    C     C_R   0.278377 0.491611 0.344405 -0.098141
C10   C     C_R   0.721616 0.489477 0.655371 -0.097895
C11   C     C_R   0.278377 0.508389 0.655595 -0.098141
C12   C     C_R   0.721616 0.510524 0.344629 -0.097895
C13   C     C_R   0.328562 0.491901 0.344185 -0.205210
C14   C     C_R   0.671431 0.489780 0.655595 -0.205496
C15   C     C_R   0.328562 0.508099 0.655815 -0.205210
C16   C     C_R   0.671431 0.510220 0.344405 -0.205496
C17   C     C_R   0.253173 0.500000 0.500000 0.350540
C18   C     C_R   0.746829 0.500000 0.500000 0.349794
C19   C     C_R   0.101533 0.500000 0.500000 -0.054486
C20   C     C_R   0.898484 0.500000 0.500000 -0.054516
C21   C     C_R   0.126989 0.370378 0.466739 -0.040106
C22   C     C_R   0.873028 0.629638 0.466876 -0.039999
C23   C     C_R   0.126989 0.629621 0.533261 -0.040106
C24   C     C_R   0.873028 0.370362 0.533124 -0.039999
C25   C     C_R   0.101581 0.242730 0.428532 -0.286280
C26   C     C_R   0.898436 0.757301 0.428755 -0.286305
C27   C     C_R   0.101581 0.757270 0.571468 -0.286280
C28   C     C_R   0.898436 0.242700 0.571245 -0.286305
C29   C     C_R   0.354124 0.500000 0.500000 -0.038502
C30   C     C_R   0.645871 0.500000 0.500000 -0.038490
H1    H     H_    0.120902 0.144712 0.392042 0.186960
H2    H     H_    0.879116 0.855336 0.392350 0.186961
H3    H     H_    0.120902 0.855287 0.607959 0.186960
H4    H     H_    0.879116 0.144664 0.607651 0.186961
C31   C     C_R   0.974743 0.366555 0.515235 0.048048
C32   C     C_R   0.025274 0.633440 0.515328 0.048016
C33   C     C_R   0.974743 0.633444 0.484765 0.048048
C34   C     C_R   0.025274 0.366559 0.484672 0.048016
C35   C     C_R   0.949388 0.500000 0.500000 -0.099402
C36   C     C_R   0.050629 0.500000 0.500000 -0.099389
C37   C     C_R   0.948982 0.240716 0.568310 0.457840
C38   C     C_R   0.051036 0.759266 0.568487 0.457904
C39   C     C_R   0.948982 0.759284 0.431691 0.457840
C40   C     C_R   0.051036 0.240734 0.431513 0.457904
C41   C     C_1   0.500000 0.065234 0.499994 -0.164403
C42   C     C_1   0.500000 0.934766 0.500006 -0.164404
N3    N     N_1   0.500000 0.500000 0.076820 -0.050314
N4    N     N_1   0.500000 0.500000 0.923180 -0.050314
H5    H     H_    0.347289 0.514481 0.777764 0.160385
H6    H     H_    0.652701 0.518328 0.222641 0.160473
H7    H     H_    0.347289 0.485519 0.222236 0.160385
H8    H     H_    0.652701 0.481672 0.777359 0.160473
H9    H     H_    0.259017 0.514646 0.776274 0.137765
H10   H     H_    0.740970 0.518452 0.224108 0.138231
H11   H     H_    0.259017 0.485353 0.223726 0.137765
H12   H     H_    0.740970 0.481549 0.775892 0.138231
O13   O     O_3   0.973555 0.123200 0.635596 -0.659319
H13   H     H_    0.950249 0.048198 0.674805 0.348763
O14   O     O_3   0.026461 0.876779 0.635799 -0.659354
H14   H     H_    0.049766 0.951794 0.675001 0.348749
O15   O     O_3   0.973555 0.876800 0.364404 -0.659318
H15   H     H_    0.950249 0.951801 0.325195 0.348763
O16   O     O_3   0.026461 0.123221 0.364200 -0.659354
H16   H     H_    0.049766 0.048206 0.324999 0.348749

loop_
_geom_bond_atom_site_label_1
_geom_bond_atom_site_label_2
_geom_bond_distance
_ccdc_geom_bond_type
O5    Cu1   1.948843 S    
C40   O16   1.377725 S    
C10   H12   1.082972 S    
O13   H13   0.992041 S    
O3    C2    1.275079 A    
C39   O15   1.377720 S    
C33   C39   1.417994 A    
C34   C40   1.418016 A    
O15   H15   0.992042 S    
C11   C17   1.400111 A    
C5    O9    1.349667 S    
C7    N1    1.367864 A    
O1    C1    1.275046 A    
C19   C21   1.405715 A    
C22   C26   1.397496 A    
C7    C23   1.404219 A    
C37   O13   1.377719 S    
O7    Cu1   1.948840 S    
C5    C21   1.404219 A    
C8    C24   1.404225 A    
C27   C38   1.404976 A    
C13   H7    1.083259 S    
C10   C18   1.399946 A    
N1    C17   1.433053 S    
C31   C37   1.417994 A    
O3    Cu1   1.948469 S    
C6    O10   1.349672 S    
C5    N1    1.367865 A    
C12   C18   1.399946 A    
C6    N2    1.367963 A    
Cu1   Cu2   2.629486 S    
O4    Cu2   1.948470 S    
O2    C2    1.275046 A    
C38   O14   1.377724 S    
O5    C3    1.282808 A    
C33   C35   1.415501 A    
C9    C13   1.394637 A    
C34   C36   1.415509 A    
C11   C15   1.394637 A    
C12   C16   1.394632 A    
C4    C30   1.472976 S    
O8    Cu2   1.948843 S    
C27   H3    1.083659 S    
C23   C27   1.397484 A    
C7    O11   1.349669 S    
N3    N4    1.194684 T    
C13   C29   1.406443 A    
C19   C23   1.405714 A    
O14   H14   0.992042 S    
C20   C24   1.405683 A    
C28   C37   1.404971 A    
O6    C4    1.282788 A    
C25   H1    1.083657 S    
C1    C41   1.416099 S    
C26   H2    1.083658 S    
C32   C38   1.418016 A    
C9    H11   1.083195 S    
C10   C14   1.394632 A    
C8    N2    1.367962 A    
C3    C29   1.473054 S    
O1    Cu1   1.948434 S    
C32   C33   1.424225 A    
C16   H6    1.083025 S    
C28   H4    1.083657 S    
C15   H5    1.083259 S    
O6    Cu2   1.948840 S    
C19   C36   1.414631 A    
C8    O12   1.349672 S    
C16   C30   1.406107 A    
C14   C30   1.406107 A    
C12   H10   1.082972 S    
C25   C40   1.404976 A    
O4    C1    1.275079 A    
C11   H9    1.083195 S    
C26   C39   1.404971 A    
C31   C34   1.424225 A    
C2    C42   1.416099 S    
C20   C22   1.405683 A    
C20   C35   1.414642 A    
Cu1   N4    1.975846 S    
Cu2   N3    1.975846 S    
C31   C35   1.415501 A    
C21   C25   1.397484 A    
C41   C42   1.194668 T    
O2    Cu2   1.948433 S    
O7    C4    1.282787 A    
N2    C18   1.433286 S    
O8    C3    1.282808 A    
O16   H16   0.992041 S    
C24   C28   1.397497 A    
C15   C29   1.406443 A    
C9    C17   1.400112 A    
C14   H8    1.083025 S    
C32   C36   1.415509 A    
C6    C22   1.404225 A    
