data_str_m2_o10_o26_f0_pcu.sym.142
_audit_creation_date              2012-12-10T16:48:46-0500
_audit_creation_method            fapswitch 2.2
_symmetry_space_group_name_H-M    P1
_symmetry_Int_Tables_number       1
_space_group_crystal_system       triclinic
_cell_length_a                    17.307532
_cell_length_b                    8.674804
_cell_length_c                    7.432135
_cell_angle_alpha                 102.86488
_cell_angle_beta                  90.821054
_cell_angle_gamma                 93.106029
_cell_volume                      1085.84883662

loop_
_atom_site_label
_atom_site_type_symbol
_atom_type_description
_atom_site_fract_x
_atom_site_fract_y
_atom_site_fract_z
_atom_type_partial_charge
C1    C     C_R   0.497625 0.199665 0.453598 0.879149
C2    C     C_R   0.501890 0.800281 0.546453 0.895332
C3    C     C_2   0.496755 0.031855 0.427192 -0.377307
C4    C     C_2   0.501899 0.967970 0.572822 -0.366808
C5    C     C_R   0.351397 0.501323 0.524987 0.861772
C6    C     C_R   0.648952 0.495022 0.474623 0.831084
C7    C     C_R   0.267655 0.498218 0.536163 -0.180911
C8    C     C_R   0.732725 0.477875 0.462363 -0.179283
C9    C     C_R   0.224197 0.400401 0.390400 -0.369098
C10   C     C_R   0.776768 0.508479 0.628497 -0.392384
C11   C     C_R   0.144237 0.406409 0.380197 0.482444
C12   C     C_R   0.855711 0.482575 0.629576 0.493453
C13   C     C_R   0.106773 0.507470 0.523515 -0.003696
C14   C     C_R   0.890017 0.421690 0.460838 -0.005742
C15   C     C_R   0.150420 0.604898 0.670108 -0.334896
C16   C     C_R   0.847102 0.390707 0.294673 -0.343614
C17   C     C_R   0.230985 0.598932 0.679747 0.430884
C18   C     C_R   0.768086 0.417207 0.293667 0.435512
C19   C     C_2   0.022804 0.521597 0.520736 -0.147438
C20   C     C_2   0.972595 0.398357 0.455904 -0.114781
Cu1   Cu    Cu3+1 0.508700 0.517250 0.683000 0.948306
Cu2   Cu    Cu3+1 0.491300 0.482750 0.317000 0.942207
H1    H     H_    0.252666 0.321088 0.281078 0.176291
H2    H     H_    0.749168 0.548577 0.758826 0.194764
H3    H     H_    0.990844 0.280194 0.399664 0.194258
H4    H     H_    0.001075 0.636415 0.581976 0.157883
H5    H     H_    0.121949 0.687650 0.775732 0.156451
H6    H     H_    0.875338 0.348180 0.165381 0.177948
H7    H     H_    0.492175 0.960598 0.286716 0.174260
H8    H     H_    0.506101 0.039181 0.713273 0.175406
H9    H     H_    0.438943 0.378960 0.957666 0.222567
H10   H     H_    0.561050 0.621049 0.042341 0.233164
N1    N     N_2   0.478180 0.456750 0.041980 -0.230683
N2    N     N_2   0.521820 0.543250 0.958020 -0.220334
O1    O     O_R   0.505650 0.286040 0.618880 -0.592272
O2    O     O_R   0.494350 0.713960 0.381120 -0.594453
O3    O     O_R   0.490960 0.256910 0.309800 -0.591682
O4    O     O_R   0.509040 0.743090 0.690200 -0.584417
O5    O     O_R   0.394600 0.516230 0.672450 -0.563445
O6    O     O_R   0.605400 0.483770 0.327550 -0.544787
O7    O     O_R   0.379910 0.487100 0.363380 -0.602304
O8    O     O_R   0.620090 0.512900 0.636620 -0.594585
O9    O     O_3   0.726468 0.391201 0.128161 -0.569713
C21   C     C_3   0.715403 0.226462 0.055190 0.071054
H11   H     H_    0.688470 0.165438 0.157978 0.129491
H12   H     H_    0.771248 0.173851 0.011506 0.135665
C22   C     C_3   0.661409 0.197388 0.886341 -0.723029
H13   H     H_    0.686714 0.255266 0.779893 0.250386
H14   H     H_    0.652656 0.068151 0.827255 0.177374
H15   H     H_    0.604509 0.246036 0.925781 0.265362
O10   O     O_3   0.274639 0.706604 0.813261 -0.570937
C23   C     C_3   0.265992 0.665413 0.985523 0.070611
H16   H     H_    0.280777 0.540568 0.977259 0.136071
H17   H     H_    0.205924 0.681911 0.034450 0.121215
C24   C     C_3   0.320840 0.772706 0.127144 -0.696924
H18   H     H_    0.308228 0.898620 0.138262 0.231950
H19   H     H_    0.313458 0.743801 0.264324 0.205647
H20   H     H_    0.381697 0.755748 0.085285 0.256377
O11   O     O_3   0.899267 0.499810 0.792727 -0.583662
C25   C     C_3   0.886891 0.644257 0.918280 0.050644
H21   H     H_    0.834143 0.631043 0.998358 0.179086
H22   H     H_    0.881530 0.743791 0.847060 0.128499
C26   C     C_3   0.955282 0.686847 0.054424 -0.804161
H23   H     H_    0.009383 0.700149 0.979562 0.236874
H24   H     H_    0.946275 0.800274 0.153641 0.205557
H25   H     H_    0.961149 0.592760 0.132488 0.258041
O12   O     O_3   0.102967 0.310334 0.232660 -0.597406
C27   C     C_3   0.111355 0.375157 0.075478 0.037697
H26   H     H_    0.171043 0.362123 0.023040 0.136430
H27   H     H_    0.098196 0.502577 0.106192 0.138284
C28   C     C_3   0.055091 0.285708 0.924243 -0.726301
H28   H     H_    0.994716 0.297484 0.971587 0.257974
H29   H     H_    0.061259 0.334706 0.799270 0.226261
H30   H     H_    0.067325 0.158286 0.888342 0.237366

loop_
_geom_bond_atom_site_label_1
_geom_bond_atom_site_label_2
_ccdc_geom_bond_type
C16   H6    S    
C28   H30   S    
C2    C4    S    
O9    C21   S    
H9    N1    S    
O11   C25   S    
C7    C9    A    
Cu1   O1    S    
C8    C18   A    
Cu2   O2    S    
C2    O4    A    
C15   H5    S    
C19   C20   D    
Cu1   O5    S    
C21   C22   S    
C1    O3    A    
C24   H18   S    
Cu2   O6    S    
C26   H24   S    
C17   O10   S    
C5    O5    A    
N1    N2    D    
C12   C14   A    
C26   H25   S    
C28   H28   S    
C22   H14   S    
C18   O9    S    
C23   H16   S    
C9    C11   A    
C3    H7    S    
C10   C12   A    
C25   H21   S    
C27   C28   S    
C25   H22   S    
O12   C27   S    
C23   C24   S    
C23   H17   S    
Cu1   Cu2   S    
C22   H15   S    
C5    C7    S    
C24   H19   S    
C13   C15   A    
C14   C16   A    
Cu2   O7    S    
C25   C26   S    
C20   H3    S    
C13   C19   S    
C3    C4    D    
C22   H13   S    
C14   C20   S    
C28   H29   S    
C11   C13   A    
C6    O6    A    
O10   C23   S    
C21   H11   S    
C1    O1    A    
C16   C18   A    
C6    O8    A    
C24   H20   S    
C2    O2    A    
C15   C17   A    
Cu2   N1    S    
C5    O7    A    
C9    H1    S    
C6    C8    S    
Cu1   N2    S    
C21   H12   S    
C10   H2    S    
H10   N2    S    
C27   H26   S    
C12   O11   S    
C27   H27   S    
Cu2   O3    S    
C8    C10   A    
C4    H8    S    
Cu1   O4    S    
Cu1   O8    S    
C11   O12   S    
C26   H23   S    
C1    C3    S    
C7    C17   A    
C19   H4    S    
