data_str_m9_o7_o18_f0_sra.sym.121
_audit_creation_date              2012-12-11T17:36:10-0500
_audit_creation_method            fapswitch 2.2
_symmetry_space_group_name_H-M    P1
_symmetry_Int_Tables_number       1
_space_group_crystal_system       triclinic
_cell_length_a                    25.843099
_cell_length_b                    6.903897
_cell_length_c                    21.705687
_cell_angle_alpha                 90.006471
_cell_angle_beta                  96.073412
_cell_angle_gamma                 90.0137
_cell_volume                      3850.95033089

loop_
_atom_site_label
_atom_site_type_symbol
_atom_type_description
_atom_site_fract_x
_atom_site_fract_y
_atom_site_fract_z
_atom_type_partial_charge
O1    O     O_R   0.208650 0.594520 0.175450 -0.534317
O2    O     O_R   0.791350 0.405480 0.824550 -0.534317
O3    O     O_R   0.291350 0.094520 0.324550 -0.534295
O4    O     O_R   0.708650 0.905480 0.675450 -0.534296
O5    O     O_R   0.192980 0.260780 0.300160 -0.541035
O6    O     O_R   0.807020 0.739220 0.699840 -0.541034
O7    O     O_R   0.307020 0.760780 0.199840 -0.541026
O8    O     O_R   0.692980 0.239220 0.800160 -0.541025
C1    C     C_R   0.178815 0.432859 0.318454 0.682042
C2    C     C_R   0.821186 0.567141 0.681546 0.682042
C3    C     C_R   0.321184 0.932872 0.181546 0.681972
C4    C     C_R   0.678816 0.067128 0.818454 0.681969
O9    O     O_R   0.202550 0.264660 0.174420 -0.536730
O10   O     O_R   0.797450 0.735340 0.825580 -0.536730
O11   O     O_R   0.297450 0.764660 0.325580 -0.536696
O12   O     O_R   0.702550 0.235340 0.674420 -0.536695
O13   O     O_R   0.300990 0.096480 0.197920 -0.539489
O14   O     O_R   0.699010 0.903520 0.802080 -0.539488
O15   O     O_R   0.199010 0.596480 0.302080 -0.539487
O16   O     O_R   0.800990 0.403520 0.697920 -0.539488
C5    C     C_R   0.191034 0.433309 0.151142 0.709387
C6    C     C_R   0.808966 0.566691 0.848858 0.709387
C7    C     C_R   0.308959 0.933376 0.348856 0.709433
C8    C     C_R   0.691040 0.066624 0.651145 0.709435
O17   O     O_3   0.282290 0.427760 0.257860 -0.364802
O18   O     O_3   0.717710 0.572240 0.742140 -0.364803
O19   O     O_3   0.217710 0.927760 0.242140 -0.364854
O20   O     O_3   0.782290 0.072240 0.757860 -0.364854
V1    V     V_3+5 0.244010 0.152080 0.248540 1.412836
V2    V     V_3+5 0.755990 0.847920 0.751460 1.412836
V3    V     V_3+5 0.255990 0.652080 0.251460 1.412850
V4    V     V_3+5 0.744010 0.347920 0.748540 1.412850
C9    C     C_R   0.657623 0.060849 0.591709 -0.086403
C10   C     C_R   0.342374 0.939158 0.408292 -0.086402
C11   C     C_R   0.842388 0.561318 0.908300 -0.086679
C12   C     C_R   0.157612 0.438681 0.091700 -0.086679
C13   C     C_R   0.647974 0.119030 0.480766 0.175714
C14   C     C_R   0.352020 0.881048 0.519240 0.175717
C15   C     C_R   0.852319 0.624520 0.018973 0.175553
C16   C     C_R   0.147680 0.375465 0.981027 0.175552
C17   C     C_R   0.678928 0.110613 0.537633 -0.161422
C18   C     C_R   0.321068 0.889438 0.462371 -0.161431
C19   C     C_R   0.821277 0.614414 0.962199 -0.161199
C20   C     C_R   0.178722 0.385575 0.037801 -0.161198
C21   C     C_R   0.604348 0.019403 0.589536 -0.222029
C22   C     C_R   0.395650 0.980591 0.410466 -0.222020
C23   C     C_R   0.895566 0.518084 0.910571 -0.222142
C24   C     C_R   0.104435 0.481921 0.089428 -0.222143
C25   C     C_R   0.570966 0.029233 0.532969 0.052828
C26   C     C_R   0.429030 0.970800 0.467035 0.052827
C27   C     C_R   0.929044 0.529602 0.967039 0.052762
C28   C     C_R   0.070956 0.470398 0.032961 0.052762
C29   C     C_R   0.593759 0.079402 0.478160 0.121567
C30   C     C_R   0.406236 0.920661 0.521845 0.121567
C31   C     C_R   0.906445 0.583309 0.021656 0.121564
C32   C     C_R   0.093554 0.416684 0.978344 0.121565
C33   C     C_R   0.515779 0.993059 0.529160 0.072771
C34   C     C_R   0.484217 0.006981 0.470845 0.072771
C35   C     C_R   0.984158 0.491937 0.970912 0.072752
C36   C     C_R   0.015842 0.508062 0.029088 0.072753
C37   C     C_R   0.508929 0.056044 0.418153 -0.192378
C38   C     C_R   0.491066 0.944025 0.581853 -0.192377
C39   C     C_R   0.991321 0.560731 0.081586 -0.192421
C40   C     C_R   0.008678 0.439264 0.918415 -0.192421
C41   C     C_R   0.562006 0.090797 0.421774 -0.198731
C42   C     C_R   0.437988 0.909288 0.578232 -0.198731
C43   C     C_R   0.938310 0.596773 0.077914 -0.198738
C44   C     C_R   0.061690 0.403218 0.922086 -0.198740
H1    H     H_    0.577810 0.128020 0.379121 0.139658
H2    H     H_    0.422183 0.872096 0.620887 0.139660
H3    H     H_    0.922656 0.636805 0.120413 0.139690
H4    H     H_    0.077343 0.363182 0.879588 0.139689
H5    H     H_    0.409662 0.015732 0.366862 0.102486
H6    H     H_    0.590339 0.984206 0.633137 0.102491
H7    H     H_    0.090549 0.519463 0.132911 0.102719
H8    H     H_    0.909452 0.480551 0.867088 0.102718
H9    H     H_    0.279899 0.855939 0.459908 0.107459
H10   H     H_    0.720096 0.144126 0.540098 0.107462
H11   H     H_    0.219802 0.350577 0.040349 0.107618
H12   H     H_    0.780197 0.649406 0.959651 0.107618
H13   H     H_    0.488359 0.069640 0.372627 0.124112
H14   H     H_    0.511635 0.930461 0.627380 0.124110
H15   H     H_    0.012000 0.576317 0.126987 0.124119
H16   H     H_    0.988000 0.423674 0.873013 0.124119
C45   C     C_R   0.427331 0.793679 0.079368 -0.133733
C46   C     C_R   0.572671 0.206321 0.920635 -0.133733
C47   C     C_R   0.072664 0.293649 0.420644 -0.133710
C48   C     C_R   0.927323 0.706353 0.579338 -0.133707
H17   H     H_    0.445579 0.663157 0.064352 0.104827
H18   H     H_    0.554425 0.336843 0.935653 0.104826
H19   H     H_    0.054413 0.163124 0.435668 0.104820
H20   H     H_    0.945563 0.836881 0.564298 0.104816
C49   C     C_R   0.388076 0.778724 0.119325 -0.169746
C50   C     C_R   0.611926 0.221277 0.880677 -0.169745
C51   C     C_R   0.111918 0.278692 0.380686 -0.169761
C52   C     C_R   0.888069 0.721311 0.619296 -0.169754
H21   H     H_    0.376945 0.636361 0.134153 0.118336
H22   H     H_    0.623059 0.363640 0.865852 0.118335
H23   H     H_    0.123047 0.136325 0.365867 0.118296
H24   H     H_    0.876929 0.863680 0.634100 0.118291
C53   C     C_R   0.363504 0.945821 0.139629 -0.056787
C54   C     C_R   0.636496 0.054179 0.860371 -0.056787
C55   C     C_R   0.136495 0.445793 0.360371 -0.056746
C56   C     C_R   0.863506 0.554207 0.639630 -0.056748
C57   C     C_R   0.379482 0.127783 0.118792 -0.168858
C58   C     C_R   0.620515 0.872216 0.881205 -0.168859
C59   C     C_R   0.120520 0.627763 0.381197 -0.168808
C60   C     C_R   0.879495 0.372233 0.618823 -0.168813
H25   H     H_    0.361641 0.259980 0.133072 0.121990
H26   H     H_    0.638355 0.740019 0.866923 0.121990
H27   H     H_    0.138363 0.759968 0.366909 0.121971
H28   H     H_    0.861663 0.240025 0.633126 0.121974
C61   C     C_R   0.418615 0.142236 0.078966 -0.138542
C62   C     C_R   0.581383 0.857763 0.921031 -0.138541
C63   C     C_R   0.081388 0.642218 0.421023 -0.138555
C64   C     C_R   0.918626 0.357777 0.578997 -0.138552
H29   H     H_    0.429949 0.283971 0.063694 0.105080
H30   H     H_    0.570047 0.716027 0.936301 0.105079
H31   H     H_    0.070057 0.783961 0.436285 0.105068
H32   H     H_    0.929968 0.216031 0.563750 0.105065
C65   C     C_R   0.442777 0.975592 0.058915 0.130994
C66   C     C_R   0.557223 0.024408 0.941085 0.130994
C67   C     C_R   0.057222 0.475572 0.441085 0.131009
C68   C     C_R   0.942779 0.524427 0.558915 0.131007
C69   C     C_1   0.483161 0.992335 0.017364 -0.060553
C70   C     C_1   0.516839 0.007665 0.982636 -0.060553
C71   C     C_1   0.016838 0.492325 0.482636 -0.060548
C72   C     C_1   0.983162 0.507672 0.517364 -0.060547
C73   C     C_3   0.673726 0.173080 0.423868 -0.809035
H33   H     H_    0.656207 0.308313 0.403334 0.211509
H34   H     H_    0.716150 0.198656 0.434787 0.211699
H35   H     H_    0.668728 0.054078 0.389336 0.209254
C74   C     C_3   0.326266 0.827048 0.576141 -0.809032
H36   H     H_    0.331273 0.946059 0.610668 0.209251
H37   H     H_    0.283840 0.801514 0.565224 0.211698
H38   H     H_    0.343776 0.691804 0.596679 0.211511
C75   C     C_3   0.826771 0.682286 0.075668 -0.809033
H39   H     H_    0.844570 0.818035 0.095491 0.211624
H40   H     H_    0.784385 0.708566 0.064722 0.211696
H41   H     H_    0.831612 0.564941 0.110780 0.209222
C76   C     C_3   0.173228 0.317684 0.924333 -0.809031
H42   H     H_    0.155425 0.181939 0.904511 0.211623
H43   H     H_    0.168389 0.435026 0.889220 0.209222
H44   H     H_    0.215613 0.291388 0.935280 0.211696

loop_
_geom_bond_atom_site_label_1
_geom_bond_atom_site_label_2
_ccdc_geom_bond_type
O17   V3    S    
C15   C75   S    
O1    C5    A    
C47   H19   S    
O19   V1    S    
C9    C21   A    
O3    C7    A    
C10   C18   A    
C48   C68   A    
C11   C23   A    
C48   C52   A    
C25   C33   A    
C33   C38   A    
C5    C12   S    
C42   H2    S    
O7    C3    A    
C6    C11   S    
C75   H40   S    
O5    C1    A    
C26   C30   A    
C58   C62   A    
C36   C39   A    
C40   C44   A    
C57   C61   A    
C23   H8    S    
C14   C18   A    
C76   H43   S    
C58   H26   S    
O4    C8    A    
C51   H23   S    
C44   H4    S    
C50   H22   S    
O1    V3    S    
O13   V1    S    
C31   C43   A    
O2    V4    S    
C14   C74   S    
O3    V1    S    
C40   H16   S    
C46   C50   A    
C65   C69   S    
C45   C49   A    
C1    O15   A    
C15   C31   A    
C48   H20   S    
C2    O16   A    
C16   C32   A    
C47   C51   A    
O2    C6    A    
C74   H38   S    
C45   C65   A    
C10   C22   A    
C11   C19   A    
C16   C20   A    
C43   H3    S    
C1    C55   S    
C68   C72   S    
C73   H35   S    
C13   C29   A    
C34   C37   A    
O11   C7    A    
C38   H14   S    
O15   V3    S    
C35   C36   A    
O12   C8    A    
C16   C76   S    
C53   C57   A    
C24   H7    S    
O10   V2    S    
C51   C55   A    
O5    V1    S    
O17   V1    S    
C75   H41   S    
C39   C43   A    
C63   C67   A    
C38   C42   A    
O19   V3    S    
C26   C34   A    
O20   V4    S    
O7    V3    S    
C46   H18   S    
C76   H44   S    
C49   C53   A    
C17   H10   S    
C45   H17   S    
O18   V4    S    
C15   C19   A    
C19   H12   S    
C32   C44   A    
C64   H32   S    
C39   H15   S    
C21   H6    S    
O8    V4    S    
C66   C70   S    
C4    C54   S    
C37   C41   A    
C67   C71   S    
C14   C30   A    
C21   C25   A    
O8    C4    A    
C7    C10   S    
C35   C40   A    
O9    C5    A    
C3    C53   S    
C59   C63   A    
C62   H30   S    
C61   H29   S    
O6    V2    S    
O18   V2    S    
C63   H31   S    
C52   C56   A    
C74   H36   S    
C12   C20   A    
C27   C35   A    
C71   C72   T    
C49   H21   S    
C56   C60   A    
C29   C41   A    
C73   H33   S    
O16   V4    S    
O9    V1    S    
C57   H25   S    
C3    O13   A    
C64   C68   A    
C59   H27   S    
C20   H11   S    
O6    C2    A    
C23   C27   A    
O11   V3    S    
C30   C42   A    
O12   V4    S    
C75   H39   S    
C22   C26   A    
C8    C9    S    
C9    C17   A    
C60   C64   A    
C2    C56   S    
C37   H13   S    
C76   H42   S    
C47   C67   A    
O10   C6    A    
C33   C34   A    
C69   C70   T    
C41   H1    S    
C52   H24   S    
O20   V2    S    
C13   C73   S    
C12   C24   A    
C27   C31   A    
C13   C17   A    
C46   C66   A    
C25   C29   A    
O14   V2    S    
C62   C66   A    
C60   H28   S    
C24   C28   A    
C61   C65   A    
C50   C54   A    
C18   H9    S    
C28   C36   A    
C54   C58   A    
C4    O14   A    
C74   H37   S    
C55   C59   A    
C22   H5    S    
O4    V2    S    
C28   C32   A    
C73   H34   S    
