data_str_m9_o13_o16_f0_sra.sym.45
_audit_creation_date              2012-12-11T14:43:34-0500
_audit_creation_method            fapswitch 2.2
_symmetry_space_group_name_H-M    P1
_symmetry_Int_Tables_number       1
_space_group_crystal_system       triclinic
_cell_length_a                    20.871628
_cell_length_b                    7.095537
_cell_length_c                    16.403173
_cell_angle_alpha                 90.009957
_cell_angle_beta                  92.827276
_cell_angle_gamma                 89.993166
_cell_volume                      2426.27761844

loop_
_atom_site_label
_atom_site_type_symbol
_atom_type_description
_atom_site_fract_x
_atom_site_fract_y
_atom_site_fract_z
_atom_type_partial_charge
O1    O     O_R   0.564840 0.505290 0.579830 -0.538887
O2    O     O_R   0.435160 0.005290 0.420170 -0.538865
O3    O     O_R   0.556720 0.179930 0.409350 -0.537028
O4    O     O_R   0.443280 0.679930 0.590650 -0.537012
C1    C     C_R   0.570414 0.345066 0.381305 0.719422
C2    C     C_R   0.429599 0.845107 0.618707 0.719439
O5    O     O_R   0.572280 0.175810 0.578530 -0.539986
O6    O     O_R   0.427720 0.675810 0.421470 -0.539963
O7    O     O_R   0.450830 0.001920 0.590540 -0.537268
O8    O     O_R   0.549170 0.501920 0.409460 -0.537252
C3    C     C_R   0.590076 0.342937 0.605039 0.694326
C4    C     C_R   0.409922 0.842934 0.394965 0.694380
O9    O     O_3   0.460130 0.338030 0.503750 -0.372164
O10   O     O_3   0.539870 0.838030 0.496250 -0.372194
V1    V     V_3+5 0.507400 0.064560 0.499310 1.433442
V2    V     V_3+5 0.492600 0.564560 0.500690 1.433452
C5    C     C_R   0.142751 0.927106 0.169884 -0.118949
C6    C     C_R   0.857247 0.427110 0.830114 -0.119038
C7    C     C_R   0.355465 0.841114 0.332830 -0.102196
C8    C     C_R   0.644533 0.341113 0.667173 -0.102210
C9    C     C_R   0.293079 0.667804 0.227530 -0.123409
C10   C     C_R   0.706954 0.167746 0.772414 -0.123541
C11   C     C_R   0.347094 0.684150 0.280811 -0.125557
C12   C     C_R   0.652932 0.184103 0.719145 -0.125444
C13   C     C_R   0.308645 0.983327 0.329628 -0.171184
C14   C     C_R   0.691327 0.483369 0.670419 -0.171330
C15   C     C_R   0.252905 0.966193 0.277228 0.087540
C16   C     C_R   0.747073 0.466227 0.722808 0.087631
C17   C     C_R   0.245340 0.806671 0.225636 0.073875
C18   C     C_R   0.754671 0.306649 0.774343 0.073759
C19   C     C_R   0.190935 0.789284 0.171916 -0.289300
C20   C     C_R   0.809086 0.289246 0.828045 -0.289120
C21   C     C_R   0.148084 0.080800 0.225074 0.242345
C22   C     C_R   0.851877 0.580879 0.774983 0.242184
C23   C     C_R   0.204823 0.105473 0.275773 0.242647
C24   C     C_R   0.795126 0.605562 0.724308 0.242279
H1    H     H_    0.186828 0.670752 0.130241 0.148478
H2    H     H_    0.813218 0.170666 0.869677 0.148634
H3    H     H_    0.288278 0.544867 0.188477 0.119720
H4    H     H_    0.711778 0.044768 0.811426 0.119739
H5    H     H_    0.382406 0.572146 0.281774 0.125368
H6    H     H_    0.617640 0.072066 0.718152 0.125377
H7    H     H_    0.314621 0.102937 0.370358 0.170080
H8    H     H_    0.685328 0.603021 0.629730 0.170056
C25   C     C_R   0.386041 0.919870 0.835427 0.383694
C26   C     C_R   0.613951 0.418099 0.164476 0.383759
H9    H     H_    0.473139 0.889774 0.772822 0.126726
H10   H     H_    0.526867 0.387989 0.227103 0.126739
H11   H     H_    0.305204 0.962007 0.957315 0.154684
H12   H     H_    0.694782 0.459634 0.042542 0.154695
C27   C     C_R   0.390541 0.856888 0.690812 -0.122762
C28   C     C_R   0.609481 0.356673 0.309208 -0.122735
C29   C     C_R   0.080460 0.867156 0.736496 -0.281256
C30   C     C_R   0.919572 0.368816 0.263608 -0.280088
C31   C     C_R   0.114471 0.840235 0.665896 0.516210
C32   C     C_R   0.885578 0.342766 0.334242 0.515439
C33   C     C_R   0.181326 0.841728 0.671855 -0.185551
C34   C     C_R   0.818721 0.343505 0.328299 -0.186400
C35   C     C_R   0.216220 0.881540 0.746125 -0.029103
C36   C     C_R   0.783793 0.381982 0.253917 -0.028830
C37   C     C_R   0.180801 0.917998 0.817309 -0.028307
C38   C     C_R   0.819191 0.417815 0.182662 -0.028382
C39   C     C_R   0.285245 0.884302 0.751505 0.064900
C40   C     C_R   0.714765 0.384183 0.248506 0.064926
C41   C     C_R   0.317779 0.916862 0.828576 -0.026397
C42   C     C_R   0.682215 0.415655 0.171358 -0.026454
C43   C     C_R   0.281965 0.946101 0.897339 -0.270261
C44   C     C_R   0.718018 0.444430 0.102554 -0.270265
C45   C     C_R   0.215201 0.961154 0.891656 0.410922
C46   C     C_R   0.784764 0.460017 0.108237 0.411028
C47   C     C_R   0.323353 0.856282 0.682815 -0.201676
C48   C     C_R   0.676669 0.356634 0.317233 -0.201708
C49   C     C_R   0.421177 0.885738 0.767003 -0.161126
C50   C     C_R   0.578832 0.384451 0.232952 -0.161169
C51   C     C_R   0.112191 0.906530 0.811588 -0.146637
C52   C     C_R   0.887811 0.406844 0.188413 -0.146996
H13   H     H_    0.302774 0.838100 0.621846 0.108793
H14   H     H_    0.697255 0.339145 0.378237 0.108710
H15   H     H_    0.028742 0.853325 0.733654 0.138072
H16   H     H_    0.971310 0.355449 0.266569 0.138051
H17   H     H_    0.204441 0.809861 0.616308 0.136524
H18   H     H_    0.795647 0.312318 0.383938 0.136423
O11   O     O_R   0.950790 0.256670 0.090520 -0.536412
O12   O     O_R   0.049210 0.756670 0.909480 -0.536552
O13   O     O_R   0.927720 0.590370 0.921470 -0.513128
O14   O     O_R   0.072280 0.090370 0.078530 -0.513077
C53   C     C_R   0.910784 0.423169 0.893846 0.813040
C54   C     C_R   0.089220 0.923173 0.106147 0.812866
O15   O     O_R   0.943270 0.586180 0.090640 -0.536539
O16   O     O_R   0.056730 0.086180 0.909360 -0.536360
O17   O     O_R   0.064850 0.759970 0.079840 -0.551498
O18   O     O_R   0.935150 0.259970 0.920160 -0.551399
C55   C     C_R   0.928884 0.417399 0.117483 0.817334
C56   C     C_R   0.071118 0.917347 0.882519 0.817187
O19   O     O_3   0.039850 0.428050 0.996240 -0.387573
O20   O     O_3   0.960150 0.928050 0.003760 -0.387416
V3    V     V_3+5 0.992610 0.701540 0.000700 1.468428
V4    V     V_3+5 0.007390 0.201540 0.999300 1.468756
O21   O     O_3   0.084650 0.793045 0.591011 -0.555980
C57   C     C_3   0.031629 0.911445 0.571796 -0.226826
H19   H     H_    0.041509 0.061679 0.587844 0.137322
H20   H     H_    0.988325 0.859982 0.601615 0.138841
H21   H     H_    0.020919 0.905536 0.504917 0.176112
O22   O     O_3   0.915562 0.297171 0.409178 -0.556071
C58   C     C_3   0.967270 0.420163 0.428744 -0.225776
H22   H     H_    0.955724 0.569684 0.413186 0.135947
H23   H     H_    0.011106 0.373589 0.398722 0.139503
H24   H     H_    0.978084 0.413955 0.495597 0.176814
O23   O     O_3   0.184134 0.014665 0.960560 -0.573572
C59   C     C_3   0.195821 0.208592 0.974867 -0.208446
H25   H     H_    0.178277 0.295559 0.921825 0.136202
H26   H     H_    0.247434 0.237545 0.989758 0.117137
H27   H     H_    0.169586 0.254317 0.028456 0.172572
O24   O     O_3   0.815786 0.513355 0.039286 -0.573622
C60   C     C_3   0.803961 0.707167 0.024853 -0.209005
H28   H     H_    0.821565 0.794455 0.077777 0.136372
H29   H     H_    0.752306 0.735868 0.010111 0.117366
H30   H     H_    0.830051 0.752734 0.971131 0.172408
O25   O     O_3   0.096600 0.202420 0.229256 -0.655586
H31   H     H_    0.096475 0.256576 0.284898 0.284029
O26   O     O_3   0.903339 0.702559 0.770837 -0.655678
H32   H     H_    0.903384 0.757091 0.715272 0.283515
O27   O     O_3   0.214877 0.265118 0.322991 -0.654251
H33   H     H_    0.191628 0.372042 0.296345 0.297857
O28   O     O_3   0.785033 0.765269 0.677157 -0.654430
H34   H     H_    0.808194 0.872227 0.703907 0.297742
O29   O     O_3   0.420451 0.958904 0.907372 -0.635046
H35   H     H_    0.398925 0.063890 0.934835 0.287755
O30   O     O_3   0.579517 0.456065 0.092443 -0.635059
H36   H     H_    0.600940 0.560903 0.064775 0.287726

loop_
_geom_bond_atom_site_label_1
_geom_bond_atom_site_label_2
_ccdc_geom_bond_type
C42   C44   A    
C39   C41   A    
C15   C17   A    
C5    C54   S    
C12   H6    S    
C24   O28   S    
O1    C3    A    
C47   H13   S    
O2    C4    A    
C13   H7    S    
C26   O30   S    
O24   C60   S    
O19   V4    S    
C14   H8    S    
O27   H33   S    
C37   C51   A    
O5    C3    A    
C58   H23   S    
C5    C21   A    
O12   V3    S    
C36   C38   A    
C29   H15   S    
C26   C42   A    
C28   C50   A    
C34   H18   S    
O14   C54   A    
C33   C35   A    
C41   C43   A    
C34   C36   A    
C60   H28   S    
O11   C55   A    
C38   C46   A    
C25   C49   A    
C59   H25   S    
C48   H14   S    
C45   O23   S    
C8    C12   A    
C60   H29   S    
O11   V4    S    
O20   V4    S    
C1    C28   S    
C20   H2    S    
C2    C27   S    
H11   C43   S    
O13   C53   A    
O6    V2    S    
C53   O18   A    
C38   C52   A    
C29   C51   A    
C27   C47   A    
C2    O7    A    
O14   V4    S    
O22   C58   S    
O16   C56   A    
C30   H16   S    
C29   C31   A    
C9    C11   A    
C58   H24   S    
C30   C32   A    
C3    C8    S    
C35   C37   A    
O18   V4    S    
H10   C50   S    
C32   O22   S    
O4    C2    A    
O5    V1    S    
C15   C23   A    
C9    C17   A    
C57   H21   S    
C46   O24   S    
C19   H1    S    
O15   V3    S    
C43   C45   A    
C40   C42   A    
O4    V2    S    
C7    C11   A    
C28   C48   A    
C52   C55   S    
O21   C57   S    
C9    H3    S    
C54   O17   A    
O6    C4    A    
C60   H30   S    
C10   H4    S    
O20   V3    S    
C57   H20   S    
O1    V2    S    
O12   C56   A    
O17   V3    S    
O2    V1    S    
C6    C22   A    
C59   H27   S    
H9    C49   S    
O26   H32   S    
C30   C52   A    
C39   C47   A    
C21   O25   S    
C22   O26   S    
C31   C33   A    
C25   C41   A    
O28   H34   S    
C5    C19   A    
C10   C12   A    
C6    C20   A    
O29   H35   S    
C26   C50   A    
O3    V1    S    
O30   H36   S    
C37   C45   A    
C10   C18   A    
C14   C16   A    
C27   C49   A    
O3    C1    A    
O25   H31   S    
O19   V3    S    
C13   C15   A    
C58   H22   S    
C35   C39   A    
C6    C53   S    
C11   H5    S    
C36   C40   A    
C23   O27   S    
O7    V1    S    
C1    O8    A    
C17   C19   A    
O8    V2    S    
O23   C59   S    
C18   C20   A    
C8    C14   A    
C25   O29   S    
C4    C7    S    
C16   C18   A    
C57   H19   S    
C21   C23   A    
C32   C34   A    
C22   C24   A    
C40   C48   A    
O15   C55   A    
C7    C13   A    
C33   H17   S    
C59   H26   S    
O13   V3    S    
C16   C24   A    
C44   C46   A    
O9    V2    S    
C31   O21   S    
O10   V1    S    
H12   C44   S    
O16   V4    S    
C51   C56   S    
