data_str_m9_o18_o19_f0_sra.sym.60
_audit_creation_date              2012-12-11T15:27:40-0500
_audit_creation_method            fapswitch 2.2
_symmetry_space_group_name_H-M    P1
_symmetry_Int_Tables_number       1
_space_group_crystal_system       triclinic
_cell_length_a                    23.230934
_cell_length_b                    7.292817
_cell_length_c                    15.115196
_cell_angle_alpha                 90.001736
_cell_angle_beta                  108.077554
_cell_angle_gamma                 89.997531
_cell_volume                      2434.39277968

loop_
_atom_site_label
_atom_site_type_symbol
_atom_type_description
_atom_site_fract_x
_atom_site_fract_y
_atom_site_fract_z
_atom_type_partial_charge
O1    O     O_R   0.711000 0.648610 0.341170 -0.535027
O2    O     O_R   0.289000 0.351390 0.658830 -0.534477
O3    O     O_R   0.789000 0.148610 0.158830 -0.535027
O4    O     O_R   0.211000 0.851390 0.841170 -0.534523
O5    O     O_R   0.829650 0.322030 0.336650 -0.539125
O6    O     O_R   0.170350 0.677970 0.663350 -0.538355
O7    O     O_R   0.670350 0.822030 0.163350 -0.539121
O8    O     O_R   0.329650 0.177970 0.836650 -0.538396
C1    C     C_R   0.854307 0.485810 0.356829 0.716473
C2    C     C_R   0.145716 0.514159 0.643113 0.725904
C3    C     C_R   0.645692 0.985814 0.143173 0.716472
C4    C     C_R   0.354284 0.014156 0.856887 0.725767
O9    O     O_R   0.713950 0.319280 0.352070 -0.538688
O10   O     O_R   0.286050 0.680720 0.647930 -0.537112
O11   O     O_R   0.786050 0.819280 0.147930 -0.538689
O12   O     O_R   0.213950 0.180720 0.852070 -0.537029
O13   O     O_R   0.672470 0.142870 0.174360 -0.532121
O14   O     O_R   0.327530 0.857130 0.825640 -0.533581
O15   O     O_R   0.827530 0.642870 0.325640 -0.532112
O16   O     O_R   0.172470 0.357130 0.674360 -0.533583
C5    C     C_R   0.701835 0.487437 0.376150 0.681746
C6    C     C_R   0.297663 0.512598 0.623360 0.682908
C7    C     C_R   0.798172 0.987428 0.123859 0.681769
C8    C     C_R   0.202345 0.012606 0.876649 0.682933
O17   O     O_3   0.736530 0.478650 0.191680 -0.377960
O18   O     O_3   0.263470 0.521350 0.808320 -0.380605
O19   O     O_3   0.763470 0.978650 0.308320 -0.377960
O20   O     O_3   0.236530 0.021350 0.691680 -0.380491
V1    V     V_3+5 0.752500 0.206170 0.260820 1.421947
V2    V     V_3+5 0.247500 0.793830 0.739180 1.398741
V3    V     V_3+5 0.747500 0.706170 0.239180 1.421960
V4    V     V_3+5 0.252500 0.293830 0.760820 1.398862
C9    C     C_R   0.827722 0.994183 0.051648 -0.022417
C10   C     C_R   0.173280 0.007091 0.949332 -0.026297
C11   C     C_R   0.672299 0.494229 0.448380 -0.022430
C12   C     C_R   0.326747 0.507050 0.550700 -0.026171
C13   C     C_R   0.822969 0.963091 0.890703 -0.131491
C14   C     C_R   0.177137 0.061599 0.108321 -0.130749
C15   C     C_R   0.677074 0.463294 0.609344 -0.131469
C16   C     C_R   0.322882 0.561095 0.391672 -0.130587
C17   C     C_R   0.793961 0.972753 0.958435 -0.197759
C18   C     C_R   0.206519 0.045372 0.041327 -0.193049
C19   C     C_R   0.706071 0.472850 0.541594 -0.197751
C20   C     C_R   0.293496 0.544934 0.458665 -0.193433
C21   C     C_R   0.890567 0.010237 0.077301 -0.180797
C22   C     C_R   0.110768 0.982305 0.924231 -0.179655
C23   C     C_R   0.609458 0.510341 0.422750 -0.180799
C24   C     C_R   0.389274 0.482552 0.575842 -0.179614
C25   C     C_R   0.921396 0.003150 0.009988 0.048519
C26   C     C_R   0.079367 0.999970 0.990433 0.052567
C27   C     C_R   0.578642 0.503363 0.490081 0.048513
C28   C     C_R   0.420673 0.500081 0.509634 0.052527
C29   C     C_R   0.886554 0.973553 0.915534 0.046801
C30   C     C_R   0.113765 0.043203 0.083734 0.048442
C31   C     C_R   0.613490 0.473809 0.584533 0.046788
C32   C     C_R   0.386265 0.542994 0.416296 0.048590
C33   C     C_R   0.985676 0.018866 0.034253 -0.002477
C34   C     C_R   0.014899 0.985417 0.965793 0.001128
C35   C     C_R   0.514363 0.519076 0.465827 -0.002383
C36   C     C_R   0.485144 0.485650 0.534290 0.001126
C37   C     C_R   0.978653 0.942203 0.874381 -0.261650
C38   C     C_R   0.021423 0.069314 0.124699 -0.257380
C39   C     C_R   0.521395 0.442522 0.625710 -0.261687
C40   C     C_R   0.478612 0.569439 0.375374 -0.257658
C41   C     C_R   0.915410 0.950799 0.847385 0.394222
C42   C     C_R   0.084468 0.074051 0.150604 0.374425
C43   C     C_R   0.584640 0.451122 0.652696 0.394220
C44   C     C_R   0.415559 0.573822 0.349421 0.374374
H1    H     H_    0.088036 0.958991 0.851394 0.093666
H2    H     H_    0.914101 0.018900 0.150864 0.093038
H3    H     H_    0.412017 0.459560 0.648705 0.093631
H4    H     H_    0.585913 0.518951 0.349188 0.093011
H5    H     H_    0.255028 0.066404 0.060816 0.104381
H6    H     H_    0.745269 0.959971 0.938485 0.121564
H7    H     H_    0.244974 0.565720 0.439142 0.104369
H8    H     H_    0.754762 0.460032 0.561529 0.121549
H9    H     H_    0.795413 0.943046 0.819067 0.158498
H10   H     H_    0.204105 0.093691 0.179011 0.154967
H11   H     H_    0.704637 0.443283 0.680979 0.158514
H12   H     H_    0.295905 0.592900 0.320951 0.155063
H13   H     H_    0.997967 0.899586 0.821698 0.128194
H14   H     H_    0.001805 0.111651 0.177299 0.138318
H15   H     H_    0.502082 0.399914 0.678394 0.128204
H16   H     H_    0.498235 0.611933 0.322809 0.138194
C45   C     C_1   0.416756 0.006812 0.918874 -0.199323
C46   C     C_1   0.583183 0.993026 0.081270 -0.191925
C47   C     C_1   0.083244 0.506817 0.581128 -0.199494
C48   C     C_1   0.916816 0.493016 0.418733 -0.191912
C49   C     C_1   0.469108 0.002219 0.970073 -0.010897
C50   C     C_1   0.530816 0.997509 0.030106 0.000142
C51   C     C_1   0.030891 0.502219 0.529931 -0.011029
C52   C     C_1   0.969183 0.497502 0.469898 0.000193
O21   O     O_3   0.880881 0.918831 0.755525 -0.580800
C53   C     C_3   0.892813 0.052070 0.695033 0.072315
H17   H     H_    0.870123 0.005643 0.622552 0.148836
H18   H     H_    0.941742 0.062464 0.701886 0.113443
C54   C     C_3   0.867133 0.241262 0.707437 -0.331989
H19   H     H_    0.817315 0.230755 0.692817 0.196018
H20   H     H_    0.887434 0.289837 0.780158 0.198257
C55   C     C_3   0.881005 0.382408 0.642254 -0.813713
H21   H     H_    0.930706 0.395586 0.656528 0.238361
H22   H     H_    0.862790 0.518228 0.653447 0.246845
H23   H     H_    0.859799 0.341085 0.568547 0.219172
O22   O     O_3   0.116925 0.131811 0.239345 -0.574060
C56   C     C_3   0.118818 0.989123 0.303491 0.061454
H24   H     H_    0.153715 0.886864 0.300364 0.125433
H25   H     H_    0.074422 0.917554 0.289631 0.116716
C57   C     C_3   0.135629 0.070440 0.401344 -0.305110
H26   H     H_    0.181303 0.134132 0.419354 0.199487
H27   H     H_    0.102349 0.178837 0.403182 0.199968
C58   C     C_3   0.135448 0.924221 0.473393 -0.770024
H28   H     H_    0.090787 0.854397 0.455039 0.217614
H29   H     H_    0.143861 0.989987 0.542375 0.248440
H30   H     H_    0.171419 0.821065 0.477801 0.219922
O23   O     O_3   0.619177 0.419180 0.744555 -0.580800
C59   C     C_3   0.607234 0.552398 0.805052 0.072329
H31   H     H_    0.629950 0.506004 0.877531 0.148843
H32   H     H_    0.558308 0.562710 0.798228 0.113433
C60   C     C_3   0.632871 0.741632 0.792623 -0.331981
H33   H     H_    0.682686 0.731189 0.807185 0.196010
H34   H     H_    0.612531 0.790205 0.719911 0.198244
C61   C     C_3   0.619013 0.882734 0.857844 -0.813744
H35   H     H_    0.569315 0.895885 0.843610 0.238364
H36   H     H_    0.637214 0.018572 0.846655 0.246848
H37   H     H_    0.640243 0.841385 0.931541 0.219151
O24   O     O_3   0.383067 0.631205 0.260623 -0.574087
C62   C     C_3   0.381522 0.488632 0.196561 0.061642
H38   H     H_    0.347140 0.384944 0.200124 0.125157
H39   H     H_    0.426199 0.418882 0.210164 0.116918
C63   C     C_3   0.364032 0.569524 0.098576 -0.304964
H40   H     H_    0.318008 0.630777 0.080720 0.199362
H41   H     H_    0.396641 0.679733 0.096370 0.200133
C64   C     C_3   0.364877 0.423688 0.026670 -0.770434
H42   H     H_    0.409955 0.356440 0.044823 0.217746
H43   H     H_    0.355851 0.489281 0.957538 0.248735
H44   H     H_    0.329596 0.318440 0.022717 0.219559

loop_
_geom_bond_atom_site_label_1
_geom_bond_atom_site_label_2
_ccdc_geom_bond_type
O17   V3    S    
O1    C5    A    
O24   C62   S    
C47   C51   T    
O19   V1    S    
C9    C21   A    
O3    C7    A    
C58   H28   S    
C10   C18   A    
O15   V3    S    
C54   H19   S    
C25   C33   A    
C33   C38   A    
C57   H26   S    
O7    C3    A    
C56   H25   S    
C35   C40   A    
C26   C30   A    
C4    C45   S    
C36   C39   A    
C40   C44   A    
O9    V1    S    
C14   C18   A    
C1    C48   S    
O4    C8    A    
C3    C46   S    
O23   C59   S    
O1    V3    S    
O13   V1    S    
C59   H31   S    
O2    V4    S    
O3    V1    S    
C43   O23   S    
C40   H16   S    
C22   H1    S    
C28   C36   A    
C17   H6    S    
C1    O15   A    
C15   C31   A    
C48   C52   T    
C2    O16   A    
C7    C9    S    
O2    C6    A    
C64   H44   S    
C16   H12   S    
C10   C22   A    
C11   C19   A    
C16   C20   A    
C13   C29   A    
C34   C37   A    
O11   C7    A    
C38   H14   S    
C11   C23   A    
C35   C36   A    
O12   C8    A    
O10   V2    S    
O22   C56   S    
C54   H20   S    
O5    V1    S    
C60   H34   S    
C56   C57   S    
C39   C43   A    
C2    C47   S    
O7    V3    S    
C38   C42   A    
O8    V4    S    
C42   O22   S    
C46   C50   T    
C51   C52   S    
C45   C49   T    
O18   V4    S    
C15   C19   A    
C14   H10   S    
C53   C54   S    
C16   C32   A    
C32   C44   A    
C13   H9    S    
C55   H23   S    
C8    C10   S    
C39   H15   S    
C26   C34   A    
C20   H7    S    
C63   H41   S    
C62   H39   S    
O5    C1    A    
C31   C43   A    
C14   C30   A    
C21   C25   A    
O8    C4    A    
C55   H22   S    
O9    C5    A    
C58   H29   S    
O21   C53   S    
C53   H18   S    
C5    C11   S    
O6    V2    S    
C64   H42   S    
C12   C20   A    
C63   C64   S    
C27   C35   A    
C24   H3    S    
C61   H36   S    
C62   H38   S    
C44   O24   S    
C54   C55   S    
C29   C41   A    
O16   V4    S    
C60   C61   S    
C19   H8    S    
C3    O13   A    
C18   H5    S    
C21   H2    S    
O6    C2    A    
C23   C27   A    
C60   H33   S    
C59   C60   S    
O11   V3    S    
C30   C42   A    
O12   V4    S    
C6    C12   S    
C56   H24   S    
C22   C26   A    
C57   C58   S    
C9    C17   A    
O10   C6    A    
C61   H37   S    
O20   V2    S    
C63   H40   S    
C49   C50   S    
C62   C63   S    
C37   H13   S    
C33   C34   A    
C57   H27   S    
C25   C29   A    
C41   O21   S    
C55   H21   S    
C59   H32   S    
C12   C24   A    
C58   H30   S    
C27   C31   A    
C13   C17   A    
C53   H17   S    
C23   H4    S    
O14   V2    S    
C37   C41   A    
C24   C28   A    
C4    O14   A    
C64   H43   S    
C61   H35   S    
O4    V2    S    
C28   C32   A    
C15   H11   S    
