data_str_m2_o4_o12_f0_pcu.sym.146
_audit_creation_date              2012-12-10T18:58:11-0500
_audit_creation_method            fapswitch 2.2
_symmetry_space_group_name_H-M    P1
_symmetry_Int_Tables_number       1
_space_group_crystal_system       triclinic
_cell_length_a                    11.034543
_cell_length_b                    10.861821
_cell_length_c                    9.543808
_cell_angle_alpha                 90.246581
_cell_angle_beta                  102.64027
_cell_angle_gamma                 90.476091
_cell_volume                      1116.09093351

loop_
_atom_site_label
_atom_site_type_symbol
_atom_type_description
_atom_site_fract_x
_atom_site_fract_y
_atom_site_fract_z
_atom_type_partial_charge
C1    C     C_R   0.499623 0.262810 0.499528 0.797619
C2    C     C_R   0.500950 0.130437 0.498184 -0.113587
C3    C     C_R   0.528564 0.064632 0.381544 -0.219201
C4    C     C_R   0.528099 0.935499 0.381863 -0.231442
C5    C     C_R   0.501492 0.870241 0.499480 -0.090536
C6    C     C_R   0.476106 0.938901 0.612520 0.102920
C7    C     C_3   0.432897 0.931270 0.749972 -0.502669
C8    C     C_3   0.431665 0.073331 0.748653 -0.196898
C9    C     C_R   0.604030 0.534724 0.100036 0.233945
C10   C     C_R   0.401894 0.454116 0.049302 -0.094310
C11   C     C_R   0.401708 0.454595 0.900529 -0.077518
C12   C     C_R   0.262713 0.498409 0.441855 0.864147
C13   C     C_R   0.604429 0.533099 0.952669 0.187233
C14   C     C_3   0.671217 0.653292 0.961629 -0.533844
C15   C     C_3   0.667385 0.657795 0.119804 0.250578
C16   C     C_R   0.499758 0.737411 0.500068 0.793765
C17   C     C_R   0.737220 0.498455 0.558265 0.860079
C18   C     C_2   0.127654 0.492334 0.409423 -0.359847
C19   C     C_2   0.067506 0.489681 0.516547 -0.158849
C20   C     C_2   0.872240 0.496503 0.591587 -0.392628
C21   C     C_2   0.932969 0.481772 0.486268 -0.159285
C22   C     C_R   0.474181 0.062961 0.610750 0.078048
Cu1   Cu    Cu3+1 0.499990 0.499980 0.640670 0.942043
Cu2   Cu    Cu3+1 0.500010 0.500020 0.359330 0.940437
H1    H     H_    0.883182 0.467001 0.375879 0.219626
H2    H     H_    0.504404 0.116482 0.834594 0.150953
H3    H     H_    0.321732 0.418287 0.084133 0.145940
H4    H     H_    0.321223 0.419699 0.824719 0.156894
H5    H     H_    0.766160 0.643163 0.941449 0.212652
H6    H     H_    0.615124 0.725347 0.896999 0.173413
H7    H     H_    0.605435 0.730907 0.146059 0.075527
H8    H     H_    0.117558 0.494643 0.628110 0.184121
H9    H     H_    0.922299 0.509236 0.702278 0.149409
H10   H     H_    0.077226 0.488725 0.298004 0.158588
H11   H     H_    0.550122 0.112184 0.290346 0.166036
H12   H     H_    0.548171 0.887707 0.290149 0.152359
H13   H     H_    0.339775 0.886669 0.734964 0.203993
H14   H     H_    0.504436 0.894690 0.839578 0.176282
N1    N     N_R   0.500780 0.500930 0.148120 -0.216267
N2    N     N_R   0.500790 0.500890 0.852210 -0.182962
O1    O     O_R   0.500000 0.319640 0.618810 -0.578498
O2    O     O_R   0.500010 0.319680 0.381230 -0.587976
O3    O     O_R   0.320680 0.500000 0.575130 -0.583990
O4    O     O_R   0.320690 0.500040 0.337550 -0.588509
O5    O     O_R   0.499990 0.680320 0.618770 -0.575256
O6    O     O_R   0.500000 0.680360 0.381190 -0.596189
O7    O     O_R   0.679310 0.499960 0.662450 -0.581281
O8    O     O_R   0.679320 0.500000 0.424870 -0.564074
O9    O     O_3   0.788236 0.649777 0.207927 -0.605864
C23   C     C_3   0.814259 0.750962 0.303970 0.091818
H15   H     H_    0.898438 0.728213 0.386764 0.177575
H16   H     H_    0.738766 0.765526 0.362677 0.134481
C24   C     C_3   0.841786 0.868626 0.227450 -0.378822
H17   H     H_    0.917225 0.850499 0.169895 0.232714
H18   H     H_    0.757758 0.896987 0.147464 0.203358
C25   C     C_3   0.881647 0.974090 0.334245 -0.932170
H19   H     H_    0.807226 0.994310 0.392523 0.264829
H20   H     H_    0.899796 0.058095 0.275886 0.252600
H21   H     H_    0.968042 0.950018 0.413009 0.260180
C26   C     C_R   0.302985 0.125508 0.738639 0.187312
C27   C     C_R   0.267820 0.158471 0.866538 -0.170568
C28   C     C_R   0.149636 0.205400 0.863207 -0.175368
C29   C     C_R   0.064957 0.218987 0.732253 -0.109214
C30   C     C_R   0.098314 0.185768 0.604365 -0.141334
C31   C     C_R   0.216484 0.139110 0.606979 -0.138762
H22   H     H_    0.332260 0.148165 0.969094 0.125567
H23   H     H_    0.123728 0.231164 0.962294 0.129453
H24   H     H_    0.973409 0.255053 0.729875 0.135261
H25   H     H_    0.032477 0.196248 0.502991 0.143740
H26   H     H_    0.239170 0.113058 0.506306 0.122218

loop_
_geom_bond_atom_site_label_1
_geom_bond_atom_site_label_2
_ccdc_geom_bond_type
C10   H3    S    
C2    C22   A    
C8    C22   S    
Cu1   Cu2   S    
C4    H12   S    
C15   H7    S    
C28   C29   A    
Cu1   O5    S    
C13   C14   S    
Cu2   O2    S    
C6    C7    S    
C23   H16   S    
Cu1   O1    S    
C25   H21   S    
C3    H11   S    
C17   O8    A    
Cu2   O6    S    
C30   C31   A    
Cu2   N1    S    
C15   O9    S    
C2    C3    A    
C7    H13   S    
C7    C8    S    
C12   O4    A    
C24   H17   S    
C25   H19   S    
C18   H10   S    
C11   N2    A    
C5    C6    A    
C11   H4    S    
C14   H6    S    
C8    H2    S    
C20   H9    S    
C28   H23   S    
C1    O1    A    
C19   C21   S    
C7    H14   S    
C25   H20   S    
C26   C31   A    
C18   C19   D    
C12   O3    A    
C24   H18   S    
C9    C15   S    
C27   C28   A    
Cu2   O4    S    
C23   C24   S    
Cu1   O7    S    
C10   C11   A    
C19   H8    S    
C16   O5    A    
C12   C18   S    
Cu1   N2    S    
C6    C22   A    
C17   O7    A    
C1    O2    A    
C9    N1    A    
C17   C20   S    
Cu1   O3    S    
C20   C21   D    
C1    C2    S    
C24   C25   S    
C16   O6    A    
O9    C23   S    
C9    C13   A    
C29   H24   S    
C10   N1    A    
C5    C16   S    
C21   H1    S    
C14   C15   S    
C14   H5    S    
C23   H15   S    
C31   H26   S    
C30   H25   S    
C27   H22   S    
C26   C27   A    
C8    C26   S    
C3    C4    A    
C29   C30   A    
C4    C5    A    
C13   N2    A    
Cu2   O8    S    
