data_str_m2_o10_o17_f0_pcu.sym.8
_audit_creation_date              2012-10-26T19:40:10-0400
_audit_creation_method            fapswitch 2.2
_symmetry_space_group_name_H-M    P1
_symmetry_Int_Tables_number       1
_space_group_crystal_system       triclinic
_cell_length_a                    14.954103
_cell_length_b                    8.660899
_cell_length_c                    7.458076
_cell_angle_alpha                 103.107308
_cell_angle_beta                  93.684222
_cell_angle_gamma                 92.014807
_cell_volume                      937.600448167

loop_
_atom_site_label
_atom_site_type_symbol
_atom_type_description
_atom_site_fract_x
_atom_site_fract_y
_atom_site_fract_z
_atom_type_partial_charge
C1    C     C_R   0.497314 0.199754 0.453190 0.542864
C2    C     C_R   0.182359 0.359499 0.428905 -0.140295
C3    C     C_R   0.766951 0.501415 0.489902 0.002764
C4    C     C_R   0.233050 0.498587 0.510100 0.002770
C5    C     C_R   0.807631 0.363278 0.409403 -0.134692
C6    C     C_R   0.192370 0.636734 0.590566 -0.134693
C7    C     C_R   0.900855 0.361462 0.414745 -0.005049
C8    C     C_R   0.099146 0.638544 0.585244 -0.005061
C9    C     C_R   0.953191 0.501540 0.497412 0.038475
C10   C     C_R   0.046810 0.498460 0.502605 0.038465
C11   C     C_R   0.911571 0.644401 0.574027 0.013744
C12   C     C_R   0.502686 0.800246 0.546810 0.542864
C13   C     C_R   0.088430 0.355591 0.426020 0.013744
C14   C     C_R   0.941700 0.220287 0.341578 -0.114421
C15   C     C_R   0.058300 0.779716 0.658423 -0.114403
C16   C     C_3   0.080617 0.056737 0.282397 -0.284402
C17   C     C_3   0.018384 0.907448 0.218903 -0.442429
C18   C     C_3   0.919380 0.943225 0.717816 -0.284412
C19   C     C_3   0.981608 0.092511 0.781406 -0.442431
C20   C     C_R   0.035621 0.213492 0.348735 0.006400
C21   C     C_R   0.964379 0.786494 0.651342 0.006404
C22   C     C_2   0.495996 0.031647 0.426978 -0.161487
C23   C     C_2   0.504004 0.968352 0.573022 -0.161488
C24   C     C_R   0.329178 0.500393 0.503364 0.544161
C25   C     C_R   0.670822 0.499607 0.496636 0.544160
C26   C     C_R   0.817643 0.640490 0.571142 -0.140298
Cu1   Cu    Cu3+1 0.510010 0.517380 0.684380 0.953048
Cu2   Cu    Cu3+1 0.489990 0.482620 0.315620 0.953048
H1    H     H_    0.782338 0.744287 0.631786 0.099609
H2    H     H_    0.569876 0.621836 0.051063 0.239792
H3    H     H_    0.975718 0.892113 0.330201 0.163798
H4    H     H_    0.975275 0.913315 0.094610 0.152157
H5    H     H_    0.059248 0.801622 0.183454 0.156884
H6    H     H_    0.121952 0.066578 0.166586 0.138736
H7    H     H_    0.126310 0.036830 0.397705 0.140999
H8    H     H_    0.024830 0.086471 0.905491 0.152127
H9    H     H_    0.024166 0.108064 0.670025 0.163819
H10   H     H_    0.940739 0.198292 0.817239 0.156869
H11   H     H_    0.873672 0.963203 0.602567 0.140993
H12   H     H_    0.217664 0.255692 0.368288 0.099604
H13   H     H_    0.878059 0.933294 0.833615 0.138742
H14   H     H_    0.766513 0.256298 0.347958 0.103476
H15   H     H_    0.233488 0.743724 0.651980 0.103470
H16   H     H_    0.899075 0.115496 0.281358 0.112737
H17   H     H_    0.100926 0.884515 0.718599 0.112737
H18   H     H_    0.488433 0.959704 0.286437 0.134247
H19   H     H_    0.511567 0.040296 0.713563 0.134246
H20   H     H_    0.430125 0.378164 0.948937 0.239793
N1    N     N_2   0.474890 0.456420 0.038520 -0.255607
N2    N     N_2   0.525110 0.543580 0.961480 -0.255607
O1    O     O_R   0.506510 0.286130 0.619770 -0.505303
O2    O     O_R   0.493490 0.713870 0.380230 -0.505303
O3    O     O_R   0.489600 0.256770 0.308360 -0.501026
O4    O     O_R   0.510400 0.743230 0.691640 -0.501026
O5    O     O_R   0.378710 0.514640 0.655720 -0.503017
O6    O     O_R   0.621290 0.485360 0.344280 -0.503020
O7    O     O_R   0.361800 0.485290 0.344300 -0.496136
O8    O     O_R   0.638200 0.514710 0.655700 -0.496138

loop_
_geom_bond_atom_site_label_1
_geom_bond_atom_site_label_2
_ccdc_geom_bond_type
C2    C4    A    
Cu2   O3    S    
Cu1   N2    S    
C11   C26   A    
C19   H10   S    
C2    H12   S    
C18   C21   S    
Cu2   O2    S    
C9    C10   A    
C12   O2    A    
C1    O1    A    
C25   O6    A    
C16   C20   S    
C5    H14   S    
H2    N2    S    
Cu1   O4    S    
C1    C22   S    
Cu2   O7    S    
C24   O5    A    
C9    C11   A    
C12   C23   S    
C15   C21   A    
C17   H5    S    
Cu1   O8    S    
C17   H3    S    
C17   H4    S    
C8    C10   A    
H20   N1    S    
C22   H18   S    
Cu1   O1    S    
N1    N2    D    
C8    C15   A    
C7    C9    A    
C6    H15   S    
C3    C26   A    
C16   H7    S    
Cu2   O6    S    
C4    C24   S    
Cu1   O5    S    
C4    C6    A    
C23   H19   S    
C25   O8    A    
C15   H17   S    
C14   C20   A    
C3    C25   S    
C2    C13   A    
C26   H1    S    
C14   H16   S    
C18   C19   S    
Cu2   N1    S    
C18   H13   S    
Cu1   Cu2   S    
C5    C7    A    
C18   H11   S    
C1    O3    A    
C22   C23   D    
C16   C17   S    
C6    C8    A    
C19   H9    S    
C13   C20   A    
C16   H6    S    
C19   H8    S    
C11   C21   A    
C7    C14   A    
C12   O4    A    
C24   O7    A    
C3    C5    A    
C10   C13   A    
