data_str_m4_o22_o22_f0_acs.sym.108
_audit_creation_date              2012-12-11T15:06:48-0500
_audit_creation_method            fapswitch 2.2
_symmetry_space_group_name_H-M    P1
_symmetry_Int_Tables_number       1
_space_group_crystal_system       triclinic
_cell_length_a                    19.957131
_cell_length_b                    11.363723
_cell_length_c                    18.721897
_cell_angle_alpha                 90.026815
_cell_angle_beta                  90.440527
_cell_angle_gamma                 89.876997
_cell_volume                      4245.75291722

loop_
_atom_site_label
_atom_site_type_symbol
_atom_type_description
_atom_site_fract_x
_atom_site_fract_y
_atom_site_fract_z
_atom_type_partial_charge
C1    C     C_R   0.760952 0.524145 0.639883 0.525629
C2    C     C_R   0.239047 0.524356 0.360099 0.525354
C3    C     C_R   0.260952 0.024145 0.639883 0.525629
C4    C     C_R   0.739047 0.024356 0.360099 0.525354
C5    C     C_3   0.813883 0.130242 0.446516 -0.286415
C6    C     C_3   0.185962 0.130150 0.553519 -0.286301
C7    C     C_3   0.313883 0.630242 0.446516 -0.286415
C8    C     C_3   0.685962 0.630150 0.553519 -0.286301
C9    C     C_3   0.749230 0.059963 0.435360 0.025625
C10   C     C_3   0.250712 0.059735 0.564629 0.025895
C11   C     C_3   0.249230 0.559963 0.435360 0.025625
C12   C     C_3   0.750712 0.559735 0.564629 0.025895
C13   C     C_3   0.765669 0.097122 0.572006 0.073827
C14   C     C_3   0.234290 0.097128 0.427996 0.073414
C15   C     C_3   0.265669 0.597122 0.572006 0.073827
C16   C     C_3   0.734290 0.597128 0.427996 0.073414
C17   C     C_3   0.759663 0.965051 0.561406 0.091790
C18   C     C_3   0.240545 0.965039 0.438462 0.092055
C19   C     C_3   0.259663 0.465051 0.561406 0.091790
C20   C     C_3   0.740545 0.465039 0.438462 0.092055
C21   C     C_3   0.827246 0.136899 0.527570 -0.262755
C22   C     C_3   0.172644 0.136940 0.472455 -0.262829
C23   C     C_3   0.327246 0.636899 0.527570 -0.262755
C24   C     C_3   0.672643 0.636940 0.472455 -0.262829
C25   C     C_3   0.003732 0.208351 0.459027 -0.263152
C26   C     C_3   0.996327 0.208245 0.540814 -0.263445
C27   C     C_3   0.503732 0.708351 0.459027 -0.263152
C28   C     C_3   0.496327 0.708245 0.540814 -0.263445
C29   C     C_3   0.064939 0.407599 0.475470 -0.176034
C30   C     C_3   0.935091 0.407728 0.524635 -0.176187
C31   C     C_3   0.564939 0.907599 0.475470 -0.176034
C32   C     C_3   0.435091 0.907728 0.524635 -0.176187
C33   C     C_3   0.943300 0.394505 0.443325 -0.094242
C34   C     C_3   0.056801 0.394025 0.556751 -0.093256
C35   C     C_3   0.443301 0.894505 0.443325 -0.094242
C36   C     C_3   0.556801 0.894025 0.556751 -0.093256
C37   C     C_3   0.011504 0.336111 0.431065 0.013813
C38   C     C_3   0.988599 0.335949 0.568956 0.014159
C39   C     C_3   0.511504 0.836111 0.431065 0.013813
C40   C     C_3   0.488599 0.835949 0.568956 0.014159
C41   C     C_3   0.813700 0.016085 0.045065 -0.228113
C42   C     C_3   0.181297 0.029669 0.951432 -0.234082
C43   C     C_3   0.313700 0.516085 0.045065 -0.228113
C44   C     C_3   0.681297 0.529669 0.951432 -0.234082
C45   C     C_R   0.777210 0.127139 0.647440 0.530917
C46   C     C_R   0.222763 0.127245 0.352556 0.529939
C47   C     C_R   0.277210 0.627139 0.647440 0.530917
C48   C     C_R   0.722763 0.627245 0.352556 0.529939
C49   C     C_3   0.813351 0.018656 0.964864 -0.249917
C50   C     C_3   0.178332 0.037168 0.031586 -0.243251
C51   C     C_3   0.313351 0.518656 0.964864 -0.249917
C52   C     C_3   0.678332 0.537168 0.031586 -0.243251
C53   C     C_3   0.684247 0.041458 0.032873 -0.185501
C54   C     C_3   0.307937 0.020339 0.969043 -0.186801
C55   C     C_3   0.184247 0.541458 0.032873 -0.185501
C56   C     C_3   0.807937 0.520339 0.969043 -0.186801
C57   C     C_3   0.757132 0.205020 0.064669 -0.258219
C58   C     C_3   0.252508 0.205717 0.935734 -0.253760
C59   C     C_3   0.257132 0.705020 0.064669 -0.258219
C60   C     C_3   0.752508 0.705717 0.935734 -0.253760
C61   C     C_3   0.748650 0.073234 0.075925 0.035740
C62   C     C_3   0.250461 0.073894 0.923699 0.034844
C63   C     C_3   0.248650 0.573234 0.075925 0.035740
C64   C     C_3   0.750461 0.573894 0.923699 0.034844
C65   C     C_3   0.760738 0.108899 0.936966 0.045682
C66   C     C_3   0.237140 0.111721 0.062215 0.049825
C67   C     C_3   0.260738 0.608899 0.936966 0.045682
C68   C     C_3   0.737140 0.611721 0.062215 0.049825
C69   C     C_3   0.690781 0.058873 0.950570 -0.091066
C70   C     C_3   0.300492 0.038040 0.051002 -0.087262
C71   C     C_3   0.190781 0.558873 0.950570 -0.091066
C72   C     C_3   0.800492 0.538040 0.051002 -0.087262
C73   C     C_3   0.765709 0.223054 0.982927 -0.213741
C74   C     C_3   0.246027 0.227139 0.017173 -0.210319
C75   C     C_3   0.265709 0.723054 0.982927 -0.213741
C76   C     C_3   0.746027 0.727139 0.017173 -0.210319
C77   C     C_3   0.015077 0.472726 0.037051 -0.211289
C78   C     C_3   0.003922 0.473567 0.957321 -0.212913
C79   C     C_3   0.515077 0.972726 0.037051 -0.211289
C80   C     C_3   0.503922 0.973567 0.957321 -0.212913
C81   C     C_3   0.059103 0.263085 0.028086 -0.215056
C82   C     C_3   0.932282 0.297055 0.972625 -0.217906
C83   C     C_3   0.559103 0.763085 0.028086 -0.215056
C84   C     C_3   0.432282 0.797055 0.972625 -0.217906
C85   C     C_3   0.941276 0.302519 0.054788 -0.260667
C86   C     C_3   0.052336 0.273235 0.945899 -0.258336
C87   C     C_3   0.441276 0.802519 0.054788 -0.260667
C88   C     C_3   0.552336 0.773235 0.945899 -0.258336
C89   C     C_R   0.967698 0.342470 0.644669 0.516760
C90   C     C_R   0.032376 0.342594 0.355363 0.517086
C91   C     C_R   0.467698 0.842470 0.644669 0.516760
C92   C     C_R   0.532376 0.842594 0.355363 0.517086
C93   C     C_3   0.011618 0.348020 0.068856 0.037863
C94   C     C_3   0.990644 0.348527 0.929856 0.038113
C95   C     C_3   0.511618 0.848020 0.068856 0.037863
C96   C     C_3   0.490644 0.848527 0.929856 0.038113
C97   C     C_R   0.760117 0.535142 0.847818 0.524867
C98   C     C_R   0.239626 0.534669 0.151852 0.526027
C99   C     C_R   0.260117 0.035142 0.847818 0.524867
C100  C     C_R   0.739626 0.034669 0.151852 0.526027
C101  C     C_R   0.775475 0.135787 0.859649 0.515300
C102  C     C_R   0.223227 0.138806 0.139451 0.520021
C103  C     C_R   0.275475 0.635787 0.859649 0.515299
C104  C     C_R   0.723227 0.638806 0.139451 0.520021
C105  C     C_R   0.969401 0.352530 0.853180 0.522670
C106  C     C_R   0.031817 0.352660 0.145914 0.523172
C107  C     C_R   0.469401 0.852530 0.853180 0.522670
C108  C     C_R   0.531817 0.852660 0.145914 0.523172
C109  C     C_3   0.691880 0.137000 0.463502 -0.219657
C110  C     C_3   0.307880 0.136812 0.536585 -0.219481
C111  C     C_3   0.191880 0.637000 0.463502 -0.219657
C112  C     C_3   0.807880 0.636812 0.536585 -0.219481
C113  C     C_3   0.701559 0.155960 0.543367 -0.192683
C114  C     C_3   0.298203 0.155862 0.456746 -0.192262
C115  C     C_3   0.201559 0.655960 0.543367 -0.192683
C116  C     C_3   0.798203 0.655862 0.456746 -0.192262
C117  C     C_3   0.757123 0.944773 0.480367 -0.145619
C118  C     C_3   0.243012 0.944605 0.519493 -0.145570
C119  C     C_3   0.257123 0.444773 0.480367 -0.145619
C120  C     C_3   0.743012 0.444605 0.519493 -0.145570
Cr1   Cr    Cr6+3 0.885690 0.492860 0.745310 1.022317
Cr2   Cr    Cr6+3 0.114310 0.492860 0.254690 1.026013
Cr3   Cr    Cr6+3 0.385690 0.992860 0.745310 1.022317
Cr4   Cr    Cr6+3 0.614310 0.992860 0.254690 1.026013
Cr5   Cr    Cr6+3 0.729880 0.332270 0.748190 1.013897
Cr6   Cr    Cr6+3 0.270120 0.332270 0.251810 1.024182
Cr7   Cr    Cr6+3 0.229880 0.832270 0.748190 1.013897
Cr8   Cr    Cr6+3 0.770120 0.832270 0.251810 1.024182
Cr9   Cr    Cr6+3 0.888120 0.178590 0.753010 1.003450
Cr10  Cr    Cr6+3 0.111880 0.178590 0.246990 1.004107
Cr11  Cr    Cr6+3 0.388120 0.678590 0.753010 1.003450
Cr12  Cr    Cr6+3 0.611880 0.678590 0.246990 1.004107
H1    H     H_    0.643238 0.097112 0.453170 0.158934
H2    H     H_    0.356607 0.097031 0.546924 0.158855
H3    H     H_    0.143238 0.597112 0.453170 0.158934
H4    H     H_    0.856607 0.597031 0.546924 0.158855
H5    H     H_    0.867419 0.072255 0.538810 0.120975
H6    H     H_    0.132628 0.072347 0.461141 0.121081
H7    H     H_    0.367419 0.572255 0.538810 0.120975
H8    H     H_    0.632628 0.572347 0.461141 0.121081
H9    H     H_    0.808265 0.913951 0.467569 0.100754
H10   H     H_    0.191890 0.914013 0.532149 0.100156
H11   H     H_    0.308265 0.413951 0.467569 0.100754
H12   H     H_    0.691890 0.414013 0.532149 0.100156
H13   H     H_    0.804754 0.919498 0.583963 0.123742
H14   H     H_    0.195582 0.919559 0.415787 0.124017
H15   H     H_    0.304754 0.419498 0.583963 0.123742
H16   H     H_    0.695582 0.419559 0.415787 0.124017
H17   H     H_    0.044582 0.152486 0.441969 0.147041
H18   H     H_    0.955350 0.152818 0.557698 0.146779
H19   H     H_    0.544582 0.652486 0.441969 0.147041
H20   H     H_    0.455350 0.652818 0.557698 0.146779
H21   H     H_    0.959333 0.165937 0.434350 0.113765
H22   H     H_    0.040670 0.165368 0.565462 0.113737
H23   H     H_    0.459333 0.665937 0.434350 0.113765
H24   H     H_    0.540670 0.665368 0.565462 0.113737
H25   H     H_    0.616017 0.889938 0.458807 0.090494
H26   H     H_    0.384035 0.889835 0.541176 0.091170
H27   H     H_    0.116017 0.389938 0.458807 0.090494
H28   H     H_    0.884035 0.389835 0.541176 0.091170
H29   H     H_    0.596127 0.833851 0.577032 0.135816
H30   H     H_    0.404042 0.834592 0.422877 0.137064
H31   H     H_    0.096127 0.333851 0.577032 0.135816
H32   H     H_    0.904042 0.334592 0.422877 0.137064
H33   H     H_    0.942599 0.500598 0.538198 0.224388
H34   H     H_    0.057340 0.500570 0.462108 0.224155
H35   H     H_    0.442599 0.000598 0.538198 0.224388
H36   H     H_    0.557340 0.000570 0.462108 0.224155
H37   H     H_    0.824782 0.926867 0.062931 0.170013
H38   H     H_    0.169216 0.937781 0.936876 0.187648
H39   H     H_    0.324782 0.426868 0.062931 0.170013
H40   H     H_    0.669216 0.437781 0.936876 0.187648
H41   H     H_    0.690906 0.222729 0.435335 0.121701
H42   H     H_    0.308619 0.222508 0.564834 0.122109
H43   H     H_    0.190907 0.722729 0.435335 0.121701
H44   H     H_    0.808619 0.722508 0.564834 0.122109
H45   H     H_    0.858047 0.065413 0.065167 0.123022
H46   H     H_    0.140841 0.083245 0.926979 0.125408
H47   H     H_    0.358047 0.565413 0.065167 0.123022
H48   H     H_    0.640841 0.583245 0.926979 0.125408
H49   H     H_    0.865432 0.038378 0.948596 0.152220
H50   H     H_    0.129241 0.070884 0.046267 0.146049
H51   H     H_    0.365432 0.538378 0.948596 0.152220
H52   H     H_    0.629241 0.570884 0.046267 0.146049
H53   H     H_    0.801736 0.930704 0.943120 0.121609
H54   H     H_    0.179877 0.946991 0.054615 0.135593
H55   H     H_    0.301736 0.430704 0.943120 0.121609
H56   H     H_    0.679878 0.446991 0.054615 0.135593
H57   H     H_    0.666568 0.952951 0.045780 0.079310
H58   H     H_    0.303180 0.928757 0.957468 0.073125
H59   H     H_    0.166568 0.452951 0.045780 0.079310
H60   H     H_    0.803180 0.428757 0.957468 0.073124
H61   H     H_    0.685900 0.971738 0.923992 0.055855
H62   H     H_    0.293578 0.950646 0.076504 0.055996
H63   H     H_    0.185900 0.471739 0.923992 0.055855
H64   H     H_    0.793578 0.450646 0.076504 0.055996
H65   H     H_    0.713035 0.254847 0.084462 0.134365
H66   H     H_    0.300834 0.240631 0.915654 0.139434
H67   H     H_    0.213035 0.754847 0.084462 0.134365
H68   H     H_    0.800834 0.740631 0.915654 0.139434
H69   H     H_    0.801435 0.238185 0.094841 0.098696
H70   H     H_    0.211370 0.250378 0.905930 0.098883
H71   H     H_    0.301435 0.738185 0.094841 0.098696
H72   H     H_    0.711370 0.750378 0.905930 0.098883
H73   H     H_    0.815284 0.251225 0.975918 0.098694
H74   H     H_    0.207967 0.291534 0.027048 0.082888
H75   H     H_    0.315284 0.751225 0.975918 0.098694
H76   H     H_    0.707967 0.791534 0.027048 0.082888
H77   H     H_    0.730299 0.289862 0.963467 0.164554
H78   H     H_    0.292003 0.268288 0.034599 0.188553
H79   H     H_    0.230299 0.789862 0.963467 0.164554
H80   H     H_    0.792003 0.768288 0.034599 0.188553
H81   H     H_    0.646618 0.103912 0.053689 0.182720
H82   H     H_    0.356571 0.053198 0.949840 0.165368
H83   H     H_    0.146618 0.603912 0.053689 0.182720
H84   H     H_    0.856571 0.553198 0.949840 0.165368
H85   H     H_    0.701174 0.246995 0.556975 0.117633
H86   H     H_    0.298332 0.246851 0.443250 0.117066
H87   H     H_    0.201174 0.746995 0.556975 0.117633
H88   H     H_    0.798332 0.746851 0.443250 0.117066
H89   H     H_    0.062263 0.511881 0.048892 0.143737
H90   H     H_    0.963119 0.536380 0.944984 0.171335
H91   H     H_    0.562263 0.011881 0.048892 0.143737
H92   H     H_    0.463119 0.036380 0.944984 0.171335
H93   H     H_    0.979172 0.530430 0.063579 0.189812
H94   H     H_    0.047993 0.504814 0.929483 0.138436
H95   H     H_    0.479172 0.030430 0.063579 0.189812
H96   H     H_    0.547994 0.004814 0.929483 0.138436
H97   H     H_    0.610135 0.777128 0.046233 0.116199
H98   H     H_    0.392624 0.855096 0.957445 0.107518
H99   H     H_    0.110135 0.277128 0.046233 0.116199
H100  H     H_    0.892624 0.355096 0.957445 0.107518
H101  H     H_    0.597955 0.813531 0.922829 0.099110
H102  H     H_    0.403382 0.860999 0.079282 0.097374
H103  H     H_    0.097955 0.313531 0.922829 0.099110
H104  H     H_    0.903382 0.360999 0.079282 0.097374
H105  H     H_    0.934931 0.213841 0.078629 0.117074
H106  H     H_    0.045461 0.184614 0.921912 0.128545
H107  H     H_    0.434931 0.713841 0.078629 0.117074
H108  H     H_    0.545461 0.684614 0.921912 0.128545
H109  H     H_    0.922350 0.205252 0.955772 0.137881
H110  H     H_    0.044157 0.172512 0.043017 0.135685
H111  H     H_    0.422350 0.705252 0.955772 0.137881
H112  H     H_    0.544157 0.672512 0.043017 0.135685
H113  H     H_    0.659324 0.124303 0.572863 0.201757
H114  H     H_    0.340491 0.124383 0.427203 0.201782
H115  H     H_    0.159324 0.624303 0.572863 0.201757
H116  H     H_    0.840491 0.624383 0.427203 0.201782
H117  H     H_    0.720420 0.877422 0.465710 0.129741
H118  H     H_    0.279645 0.876958 0.534168 0.129521
H119  H     H_    0.220420 0.377422 0.465710 0.129741
H120  H     H_    0.779645 0.376958 0.534168 0.129521
H121  H     H_    0.856661 0.086587 0.419539 0.132981
H122  H     H_    0.143268 0.086515 0.580433 0.132711
H123  H     H_    0.356661 0.586587 0.419539 0.132981
H124  H     H_    0.643268 0.586515 0.580433 0.132711
H125  H     H_    0.808794 0.218469 0.423152 0.179306
H126  H     H_    0.190908 0.218319 0.577005 0.178941
H127  H     H_    0.308794 0.718469 0.423152 0.179306
H128  H     H_    0.690908 0.718319 0.577005 0.178941
H129  H     H_    0.844475 0.223576 0.543912 0.120095
H130  H     H_    0.155372 0.223688 0.456198 0.120379
H131  H     H_    0.344475 0.723576 0.543912 0.120095
H132  H     H_    0.655372 0.723688 0.456198 0.120379
O1    O     O_R   0.957210 0.449410 0.665480 -0.507139
O2    O     O_R   0.042790 0.449410 0.334520 -0.506754
O3    O     O_R   0.457210 0.949410 0.665480 -0.507139
O4    O     O_R   0.542790 0.949410 0.334520 -0.506754
O5    O     O_R   0.736260 0.212010 0.826560 -0.510339
O6    O     O_R   0.263740 0.212010 0.173440 -0.495766
O7    O     O_R   0.236260 0.712010 0.826560 -0.510339
O8    O     O_R   0.763740 0.712010 0.173440 -0.495766
O9    O     O_R   0.832520 0.095300 0.836000 -0.529790
O10   O     O_R   0.167480 0.095300 0.164000 -0.532302
O11   O     O_R   0.332520 0.595300 0.836000 -0.529790
O12   O     O_R   0.667480 0.595300 0.164000 -0.532302
O13   O     O_R   0.946380 0.253940 0.826940 -0.509808
O14   O     O_R   0.053620 0.253940 0.173060 -0.510235
O15   O     O_R   0.446380 0.753940 0.826940 -0.509808
O16   O     O_R   0.553620 0.753940 0.173060 -0.510235
O17   O     O_3   0.834560 0.334570 0.748840 -0.287286
O18   O     O_3   0.165440 0.334570 0.251160 -0.291432
O19   O     O_3   0.334560 0.834570 0.748840 -0.287286
O20   O     O_3   0.665440 0.834570 0.251160 -0.291432
O21   O     O_R   0.820730 0.541240 0.668250 -0.512176
O22   O     O_R   0.179270 0.541240 0.331750 -0.512143
O23   O     O_R   0.320730 0.041240 0.668250 -0.512176
O24   O     O_R   0.679270 0.041240 0.331750 -0.512143
O25   O     O_R   0.714240 0.455060 0.663710 -0.527569
O26   O     O_R   0.285760 0.455060 0.336290 -0.527322
O27   O     O_R   0.214240 0.955060 0.663710 -0.527569
O28   O     O_R   0.785760 0.955060 0.336290 -0.527322
O29   O     O_R   0.736780 0.204870 0.675910 -0.516593
O30   O     O_R   0.263220 0.204870 0.324090 -0.515556
O31   O     O_R   0.236780 0.704870 0.675910 -0.516593
O32   O     O_R   0.763220 0.704870 0.324090 -0.515556
O33   O     O_R   0.833070 0.087590 0.673490 -0.535689
O34   O     O_R   0.166930 0.087590 0.326510 -0.535398
O35   O     O_R   0.333070 0.587590 0.673490 -0.535689
O36   O     O_R   0.666930 0.587590 0.326510 -0.535398
O37   O     O_R   0.946890 0.246800 0.676300 -0.514775
O38   O     O_R   0.053110 0.246800 0.323700 -0.514186
O39   O     O_R   0.446890 0.746800 0.676300 -0.514775
O40   O     O_R   0.553110 0.746800 0.323700 -0.514186
O41   O     O_R   0.956650 0.457120 0.827980 -0.532831
O42   O     O_R   0.043350 0.457120 0.172020 -0.529216
O43   O     O_R   0.456650 0.957120 0.827980 -0.532831
O44   O     O_R   0.543350 0.957120 0.172020 -0.529216
O45   O     O_R   0.820220 0.548390 0.818890 -0.509707
O46   O     O_R   0.179780 0.548390 0.181110 -0.511823
O47   O     O_R   0.320220 0.048390 0.818890 -0.509707
O48   O     O_R   0.679780 0.048390 0.181110 -0.511823
O49   O     O_R   0.713680 0.462770 0.826210 -0.523990
O50   O     O_R   0.286320 0.462770 0.173790 -0.522033
O51   O     O_R   0.213680 0.962770 0.826210 -0.523990
O52   O     O_R   0.786320 0.962770 0.173790 -0.522033
C121  C     C_2   0.934845 0.509233 0.403058 0.241957
H133  H     H_    0.908966 0.508610 0.351817 0.136872
O53   O     O_2   0.959875 0.601184 0.424113 -0.517836
C122  C     C_2   0.065292 0.508561 0.597221 0.241734
H134  H     H_    0.091380 0.507658 0.648338 0.135470
O54   O     O_2   0.040025 0.600663 0.576484 -0.518401
C123  C     C_2   0.434845 0.009233 0.403058 0.241957
H135  H     H_    0.408966 0.008610 0.351817 0.136872
O55   O     O_2   0.459875 0.101184 0.424113 -0.517836
C124  C     C_2   0.565292 0.008561 0.597221 0.241734
H136  H     H_    0.591380 0.007658 0.648338 0.135470
O56   O     O_2   0.540024 0.100663 0.576484 -0.518401
C125  C     C_2   0.637206 0.139236 0.918791 0.193933
H137  H     H_    0.622901 0.128117 0.863137 0.129277
O57   O     O_2   0.609933 0.216406 0.953618 -0.541647
C126  C     C_2   0.361542 0.091487 0.086604 0.185681
H138  H     H_    0.377176 0.059523 0.138779 0.115541
O58   O     O_2   0.392297 0.172668 0.059471 -0.543331
C127  C     C_2   0.137206 0.639236 0.918791 0.193934
H139  H     H_    0.122901 0.628117 0.863137 0.129277
O59   O     O_2   0.109933 0.716406 0.953618 -0.541647
C128  C     C_2   0.861542 0.591487 0.086604 0.185682
H140  H     H_    0.877176 0.559523 0.138779 0.115541
O60   O     O_2   0.892297 0.672668 0.059471 -0.543331
O61   O     O_3   0.702645 0.921400 0.594806 -0.797122
H141  H     H_    0.714016 0.910615 0.646125 0.314624
O62   O     O_3   0.297679 0.921445 0.405056 -0.797385
H142  H     H_    0.286378 0.910752 0.353714 0.314868
O63   O     O_3   0.202645 0.421400 0.594806 -0.797122
H143  H     H_    0.214016 0.410615 0.646125 0.314624
O64   O     O_3   0.797679 0.421445 0.405056 -0.797385
H144  H     H_    0.786378 0.410752 0.353714 0.314868

loop_
_geom_bond_atom_site_label_1
_geom_bond_atom_site_label_2
_ccdc_geom_bond_type
C78   H94   S    
C82   C94   S    
C119  H11   S    
C7    H127  S    
C120  H12   S    
C41   C61   S    
C53   C69   S    
C56   H60   S    
C120  H120  S    
C43   C63   S    
C44   C64   S    
C114  H86   S    
C63   C98   S    
C51   H51   S    
C109  H41   S    
C28   C40   S    
Cr12  O12   S    
C30   C38   S    
Cr8   O32   S    
C113  H85   S    
C42   H38   S    
C75   H75   S    
C56   C72   S    
C98   O46   A    
C8    H124  S    
C124  H136  S    
C106  O14   A    
C21   H5    S    
C84   H98   S    
C18   C118  S    
C81   C86   S    
C110  H42   S    
C83   C88   S    
C92   O40   A    
C91   O3    A    
C41   C49   S    
C109  H1    S    
C123  H135  S    
C52   H52   S    
C118  H118  S    
Cr1   O1    S    
C127  O59   D    
C26   C38   S    
C14   C114  S    
C41   H37   S    
C83   H112  S    
Cr4   O4    S    
C24   H8    S    
C55   H59   S    
C81   H110  S    
C41   H45   S    
C15   C19   S    
C44   H40   S    
C47   O35   A    
C54   C70   S    
C23   H131  S    
C68   C72   S    
C43   H47   S    
C69   H61   S    
C1    O25   A    
C98   O50   A    
C102  O10   A    
C31   H25   S    
C64   C97   S    
C36   H29   S    
C15   C115  S    
Cr6   O50   S    
Cr7   O31   S    
C54   H82   S    
Cr1   O41   S    
C57   H65   S    
Cr6   O6    S    
C46   O34   A    
C72   H64   S    
C57   C61   S    
C82   C85   S    
C59   C63   S    
C60   C64   S    
C13   C45   S    
C66   C70   S    
C78   C94   S    
C113  H113  S    
Cr9   O33   S    
C86   H106  S    
C4    O28   A    
C20   O64   S    
C95   C108  S    
C60   H68   S    
C62   C99   S    
C92   O4    A    
C5    C21   S    
C108  O44   A    
C81   H99   S    
C31   C36   S    
C48   O36   A    
C55   C71   S    
C76   H76   S    
C103  O7    A    
Cr6   O30   S    
C88   H108  S    
Cr7   O51   S    
Cr2   O2    S    
C19   O63   S    
C65   C101  S    
C43   C51   S    
Cr11  O19   S    
C67   C103  S    
C88   H101  S    
C37   C90   S    
Cr10  O34   S    
Cr11  O39   S    
C42   H46   S    
C70   C126  S    
C100  O48   A    
C66   C74   S    
C25   H17   S    
C5    H121  S    
C85   C93   S    
C60   H72   S    
C87   C95   S    
C56   C64   S    
C10   C110  S    
C116  H88   S    
C47   O31   A    
C104  O12   A    
C85   H105  S    
C18   O62   S    
C48   O32   A    
C89   O37   A    
C76   H80   S    
C91   O39   A    
Cr7   O7    S    
C127  H139  S    
Cr8   O8    S    
C50   H50   S    
C1    C12   S    
Cr1   O17   S    
C112  H4    S    
C2    C11   S    
C71   C127  S    
Cr4   O20   S    
Cr12  O16   S    
C87   H107  S    
C126  H138  S    
C118  H10   S    
C43   H39   S    
C15   C47   S    
C25   C26   S    
C101  O5    A    
C72   C128  S    
C123  O55   D    
C122  O54   D    
C8    H128  S    
C5    C9    S    
C119  H119  S    
C93   C106  S    
C71   H63   S    
C8    C12   S    
C5    H125  S    
C51   C67   S    
C58   H70   S    
C78   H90   S    
C17   O61   S    
C112  H44   S    
C42   C50   S    
C128  O60   D    
C49   H49   S    
C110  H2    S    
C61   C100  S    
C67   C75   S    
Cr8   O20   S    
C50   H54   S    
C112  C116  S    
C58   C74   S    
C21   H129  S    
C82   H100  S    
C53   H81   S    
C54   H58   S    
C30   H33   S    
Cr5   O17   S    
C79   H91   S    
C68   C76   S    
C13   C17   S    
C14   C22   S    
C99   O51   A    
C103  O11   A    
C7    C23   S    
C8    C24   S    
C89   O1    A    
C40   C91   S    
Cr5   O25   S    
C56   H84   S    
Cr4   O44   S    
Cr8   O28   S    
C49   H53   S    
Cr1   O45   S    
C57   H69   S    
Cr2   O42   S    
Cr9   O37   S    
Cr3   O47   S    
C46   O30   A    
C4    C9    S    
C53   H57   S    
C58   C62   S    
C88   C96   S    
C94   C105  S    
C77   H93   S    
Cr9   O9    S    
C12   C112  S    
C44   H48   S    
C1    O21   A    
C14   C46   S    
C59   H71   S    
C77   C78   S    
C3    O23   A    
C75   H79   S    
C55   C63   S    
C101  O9    A    
C6    C22   S    
C9    C117  S    
C121  O53   D    
C14   C18   S    
C73   H73   S    
Cr6   O26   S    
C99   O47   A    
C116  H116  S    
C20   C120  S    
C3    O27   A    
Cr10  O10   S    
Cr12  O36   S    
Cr11  O15   S    
C17   C117  S    
C42   C62   S    
C19   C119  S    
Cr10  O38   S    
C9    C109  S    
Cr11  O35   S    
C16   C116  S    
C100  O52   A    
C115  H115  S    
C27   H23   S    
C117  H9    S    
C25   H21   S    
C26   H18   S    
C33   C121  S    
O64   H144  S    
C117  H117  S    
C54   C62   S    
C107  O43   A    
C11   C111  S    
C29   C34   S    
C19   H15   S    
C82   H109  S    
C45   O33   A    
C30   H28   S    
C104  O8    A    
C79   C95   S    
C80   H92   S    
C90   O38   A    
Cr5   O29   S    
C70   H62   S    
C107  O15   A    
Cr1   O21   S    
C80   H96   S    
Cr2   O18   S    
Cr3   O23   S    
Cr4   O24   S    
Cr12  O20   S    
C96   C107  S    
C60   C76   S    
C39   C92   S    
C73   H77   S    
C27   H19   S    
C102  O6    A    
C7    H123  S    
C68   C104  S    
C17   H13   S    
C6    C10   S    
C22   H130  S    
C83   H97   S    
C22   H6    S    
C6    H126  S    
C55   H83   S    
C2    O26   A    
C114  H114  S    
C65   C69   S    
Cr6   O18   S    
C77   C93   S    
C36   C124  S    
Cr4   O48   S    
C84   H111  S    
C67   C71   S    
C111  H3    S    
C33   C37   S    
C51   H55   S    
Cr3   O3    S    
C31   H36   S    
Cr12  O40   S    
C32   H35   S    
C29   C37   S    
C29   H34   S    
O62   H142  S    
C97   O45   A    
C85   H104  S    
C105  O13   A    
C125  H137  S    
C66   C102  S    
C35   C39   S    
C84   C87   S    
C35   C123  S    
C11   C119  S    
C16   C48   S    
C34   C122  S    
C29   H27   S    
O61   H141  S    
C7    C11   S    
C38   C89   S    
C4    O24   A    
C87   H102  S    
C49   C65   S    
C74   H78   S    
C111  H43   S    
C23   H7    S    
C90   O2    A    
C126  O58   D    
C57   C73   S    
Cr2   O46   S    
C65   C73   S    
C6    H122  S    
Cr3   O43   S    
C84   C96   S    
Cr7   O19   S    
C86   C94   S    
C25   C37   S    
C12   C120  S    
C59   H67   S    
Cr9   O13   S    
C80   C96   S    
C52   C68   S    
C16   C20   S    
C2    O22   A    
C15   C23   S    
C16   C24   S    
C97   O49   A    
C115  H87   S    
C53   C61   S    
C79   H95   S    
C106  O42   A    
C32   H26   S    
C35   H30   S    
C13   C21   S    
C32   C35   S    
C36   C40   S    
C33   H32   S    
Cr5   O49   S    
C34   H31   S    
C27   C39   S    
Cr7   O27   S    
Cr8   O52   S    
Cr5   O5    S    
Cr10  O14   S    
Cr11  O11   S    
C10   C118  S    
C81   C93   S    
C83   C95   S    
C24   H132  S    
C20   H16   S    
C125  O57   D    
Cr9   O17   S    
C50   C66   S    
C77   H89   S    
C28   H20   S    
C26   H22   S    
C59   C75   S    
C74   H74   S    
C110  C114  S    
C58   H66   S    
C30   C33   S    
C34   C38   S    
C45   O29   A    
C18   H14   S    
C124  O56   D    
C69   C125  S    
C109  C113  S    
C52   H56   S    
C86   H103  S    
C122  H134  S    
Cr2   O22   S    
Cr10  O18   S    
C3    C10   S    
Cr3   O19   S    
C44   C52   S    
C31   C39   S    
C32   C40   S    
C121  H133  S    
C79   C80   S    
C128  H140  S    
C27   C28   S    
C28   H24   S    
C111  C115  S    
O63   H143  S    
C108  O16   A    
C13   C113  S    
C105  O41   A    
