data_str_m12_o9_o22_f0_bcu.sym.19
_audit_creation_date              2012-12-11T17:45:24-0500
_audit_creation_method            fapswitch 2.2
_symmetry_space_group_name_H-M    P1
_symmetry_Int_Tables_number       1
_space_group_crystal_system       triclinic
_cell_length_a                    15.049897
_cell_length_b                    14.971695
_cell_length_c                    15.235067
_cell_angle_alpha                 110.746434
_cell_angle_beta                  108.955498
_cell_angle_gamma                 109.191304
_cell_volume                      2626.24660905

loop_
_atom_site_label
_atom_site_type_symbol
_atom_type_description
_atom_site_fract_x
_atom_site_fract_y
_atom_site_fract_z
_atom_type_partial_charge
C1    C     C_R   0.971518 0.247030 0.059530 -0.131983
C2    C     C_R   0.708514 0.191692 0.793674 -0.024388
C3    C     C_R   0.774700 0.589891 0.026892 -0.210911
C4    C     C_R   0.314460 0.756565 0.223988 -0.069844
C5    C     C_R   0.981211 0.407922 0.691317 -0.152487
C6    C     C_R   0.671356 0.495560 0.954392 -0.004125
C7    C     C_R   0.023968 0.501446 0.685404 0.065392
C8    C     C_R   0.704323 0.129417 0.699054 0.039184
C9    C     C_R   0.060611 0.868403 0.070588 0.060277
C10   C     C_R   0.586241 0.319238 0.203337 -0.126331
C11   C     C_R   0.697524 0.390027 0.275264 -0.129685
C12   C     C_R   0.323441 0.779592 0.324785 0.121336
C13   C     C_R   0.762983 0.348542 0.312537 0.114409
C14   C     C_R   0.716215 0.234643 0.273656 -0.172151
C15   C     C_R   0.605057 0.163845 0.200293 -0.096244
C16   C     C_R   0.206250 0.408955 0.900270 -0.039003
C17   C     C_R   0.539804 0.206394 0.166587 -0.114501
C18   C     C_R   0.905264 0.422531 0.496499 -0.223519
C19   C     C_R   0.007178 0.502148 0.588332 0.064931
C20   C     C_R   0.082612 0.587740 0.588323 0.014187
C21   C     C_R   0.054369 0.589507 0.494165 -0.226831
C22   C     C_R   0.953053 0.508908 0.401502 0.066025
C23   C     C_R   0.298166 0.500982 0.930117 0.049314
C24   C     C_R   0.876265 0.425848 0.402570 0.016820
C25   C     C_R   0.210766 0.783109 0.740594 -0.195153
C26   C     C_R   0.314608 0.868293 0.825518 -0.102220
C27   C     C_R   0.400821 0.847659 0.850884 -0.112730
C28   C     C_R   0.995673 0.593095 0.297814 -0.158684
C29   C     C_R   0.382911 0.741548 0.791818 -0.113974
C30   C     C_R   0.278364 0.655237 0.708410 -0.132052
C31   C     C_R   0.191601 0.675640 0.682397 0.107195
C32   C     C_R   0.240882 0.032422 0.517926 -0.120169
C33   C     C_R   0.318576 0.006684 0.504823 -0.114438
C34   C     C_R   0.941620 0.503176 0.302648 0.064798
C35   C     C_R   0.333533 0.927746 0.527034 0.126548
C36   C     C_R   0.271740 0.876916 0.564787 -0.181351
C37   C     C_R   0.189386 0.897760 0.570910 -0.130415
C38   C     C_R   0.174612 0.976210 0.548530 -0.121459
C39   C     C_R   0.521100 0.984117 0.619356 -0.205946
C40   C     C_R   0.298504 0.592168 0.994758 -0.070909
C41   C     C_R   0.618116 0.014385 0.617595 0.003852
C42   C     C_R   0.620857 0.943482 0.529042 -0.120392
C43   C     C_R   0.522229 0.852754 0.437836 0.416796
C44   C     C_R   0.423302 0.844742 0.430345 -0.071599
C45   C     C_R   0.685333 0.405334 0.941371 0.512603
C46   C     C_R   0.424142 0.910417 0.524751 -0.022916
C47   C     C_R   0.739640 0.001577 0.455160 -0.134208
C48   C     C_R   0.843971 0.052649 0.470394 -0.157416
C49   C     C_R   0.932067 0.068005 0.555012 -0.121377
C50   C     C_R   0.915747 0.031818 0.624183 -0.153296
C51   C     C_R   0.812037 0.982260 0.610604 -0.114221
C52   C     C_R   0.909619 0.409863 0.210087 -0.155465
C53   C     C_R   0.723746 0.969479 0.527613 0.214926
C54   C     C_3   0.466546 0.384104 0.847381 -0.307994
C55   C     C_3   0.365310 0.386542 0.843765 -0.468339
C56   C     C_R   0.068618 0.593579 0.784407 -0.114378
C57   C     C_3   0.572361 0.522155 0.048501 -0.628253
C58   C     C_3   0.561974 0.588325 0.915623 0.391848
C59   C     C_3   0.569911 0.497043 0.939614 0.189561
C60   C     C_3   0.395737 0.501700 0.930076 0.193598
C61   C     C_3   0.476587 0.536516 0.046968 0.415636
C62   C     C_3   0.453922 0.585326 0.902332 -0.605977
C63   C     C_R   0.159840 0.040861 0.797778 -0.134637
C64   C     C_R   0.219828 0.742801 0.310473 -0.123654
C65   C     C_R   0.120553 0.044220 0.869434 -0.183723
C66   C     C_R   0.187633 0.126173 0.979657 0.077039
C67   C     C_R   0.791574 0.197682 0.698187 -0.136543
C68   C     C_R   0.294505 0.202476 0.017728 -0.078202
C69   C     C_R   0.333516 0.198862 0.945761 -0.120707
C70   C     C_R   0.265958 0.118782 0.835625 -0.136935
C71   C     C_R   0.164782 0.039459 0.081582 -0.226396
C72   C     C_R   0.095137 0.986027 0.110707 0.058521
C73   C     C_R   0.046461 0.040428 0.157021 0.023424
C74   C     C_R   0.056406 0.135196 0.155368 -0.226599
C75   C     C_R   0.091989 0.162005 0.089021 0.078763
C76   C     C_R   0.065988 0.250433 0.971603 -0.104004
C77   C     C_R   0.152865 0.116704 0.056706 0.032555
C78   C     C_R   0.999664 0.801811 0.095898 -0.111469
C79   C     C_R   0.858014 0.944527 0.122685 -0.127404
C80   C     C_R   0.785077 0.895158 0.151429 -0.148795
C81   C     C_R   0.823647 0.892540 0.246602 -0.117811
C82   C     C_R   0.935505 0.945373 0.316503 -0.118145
C83   C     C_R   0.008892 0.999759 0.290701 -0.184178
C84   C     C_R   0.970348 0.994559 0.191033 0.104710
C85   C     C_R   0.048100 0.220191 0.043638 0.072480
C86   C     C_3   0.615352 0.260804 0.964510 0.233582
C87   C     C_3   0.528405 0.139702 0.907220 -0.956924
C88   C     C_R   0.091032 0.805225 0.006626 -0.123587
Cl1   Cl    Cl    0.524682 0.751055 0.335683 -0.657471
Cl2   Cl    Cl    0.417962 0.467780 0.105990 -0.667525
Cl3   Cl    Cl    0.573612 0.575286 0.798790 -0.673853
H1    H     H_    0.936025 0.234060 0.107983 0.093883
H2    H     H_    0.536409 0.352569 0.176962 0.158457
H3    H     H_    0.731753 0.477663 0.305285 0.128874
H4    H     H_    0.378735 0.776436 0.204878 0.135799
H5    H     H_    0.765431 0.201231 0.301967 0.108863
H6    H     H_    0.569173 0.076346 0.171122 0.101818
H7    H     H_    0.845281 0.361249 0.499818 0.137768
H8    H     H_    0.114949 0.651292 0.492175 0.130365
H9    H     H_    0.144541 0.800039 0.721658 0.118055
H10   H     H_    0.328085 0.950227 0.871200 0.128874
H11   H     H_    0.481562 0.913932 0.915945 0.108558
H12   H     H_    0.107752 0.679583 0.809798 0.110852
H13   H     H_    0.450458 0.726693 0.810237 0.155045
H14   H     H_    0.265472 0.573480 0.662732 0.123886
H15   H     H_    0.113427 0.995096 0.557187 0.098901
H16   H     H_    0.173978 0.323586 0.841750 0.075419
H17   H     H_    0.233110 0.096889 0.505719 0.108776
H18   H     H_    0.369364 0.050470 0.480678 0.117894
H19   H     H_    0.285743 0.819331 0.586406 0.140186
H20   H     H_    0.137731 0.854074 0.594045 0.114530
H21   H     H_    0.517214 0.033653 0.688091 0.154608
H22   H     H_    0.672970 0.994745 0.392284 0.118692
H23   H     H_    0.820330 0.178059 0.642196 0.125951
H24   H     H_    0.856909 0.083007 0.418339 0.132827
H25   H     H_    0.013120 0.109268 0.567875 0.105017
H26   H     H_    0.983986 0.046549 0.691211 0.123678
H27   H     H_    0.023575 0.678509 0.352639 0.108736
H28   H     H_    0.801657 0.960183 0.668487 0.119562
H29   H     H_    0.463649 0.316173 0.861105 0.205704
H30   H     H_    0.462114 0.362559 0.767752 0.213865
H31   H     H_    0.308811 0.364642 0.761289 0.176582
H32   H     H_    0.323206 0.322642 0.858795 0.193413
H33   H     H_    0.570596 0.454273 0.063189 0.208998
H34   H     H_    0.975974 0.823409 0.155512 0.122569
H35   H     H_    0.630165 0.670388 0.985037 0.056037
H36   H     H_    0.399355 0.560177 0.817996 0.228189
H37   H     H_    0.354674 0.677717 0.027055 0.076789
H38   H     H_    0.472243 0.669626 0.956564 0.137119
H39   H     H_    0.648656 0.599006 0.117921 0.170557
H40   H     H_    0.508451 0.625783 0.101889 0.110108
H41   H     H_    0.295759 0.117200 0.779756 0.134292
H42   H     H_    0.107752 0.977501 0.713137 0.111282
H43   H     H_    0.038887 0.981717 0.839762 0.127812
H44   H     H_    0.347682 0.262445 0.103403 0.158855
H45   H     H_    0.148462 0.833100 0.981266 0.087459
H46   H     H_    0.416107 0.258221 0.975488 0.143036
H47   H     H_    0.213276 0.007563 0.057863 0.120994
H48   H     H_    0.020489 0.176365 0.192698 0.127150
H49   H     H_    0.859202 0.324922 0.184558 0.096880
H50   H     H_    0.827172 0.942570 0.046730 0.125441
H51   H     H_    0.698695 0.857765 0.099294 0.112240
H52   H     H_    0.766913 0.850981 0.266956 0.146139
H53   H     H_    0.965128 0.943522 0.390223 0.125199
H54   H     H_    0.095103 0.039611 0.344155 0.118324
H55   H     H_    0.195043 0.737711 0.367640 0.121055
H56   H     H_    0.669973 0.157915 0.830970 0.120344
H57   H     H_    0.121071 0.245643 0.942178 0.134319
H58   H     H_    0.602554 0.310994 0.027537 0.092978
H59   H     H_    0.696317 0.269193 0.005340 0.097842
H60   H     H_    0.561766 0.084384 0.886407 0.227420
H61   H     H_    0.498159 0.125285 0.960809 0.228424
H62   H     H_    0.458933 0.116023 0.831692 0.277372
H63   H     H_    0.794075 0.674974 0.062041 0.143812
H64   H     H_    0.945042 0.322605 0.629708 0.102173
H65   H     H_    0.453464 0.151536 0.111352 0.105757
N1    N     N_R   0.947080 0.293830 0.002870 -0.049824
N2    N     N_R   0.153670 0.443180 0.946090 -0.037294
N3    N     N_R   0.002360 0.556820 0.208890 -0.033678
N4    N     N_R   0.210070 0.556820 0.002870 -0.031490
N5    N     N_R   0.945960 0.443180 0.152110 -0.040496
N6    N     N_R   0.151710 0.706170 0.208890 -0.050734
N7    N     N_R   0.004320 0.293830 0.946090 -0.049882
N8    N     N_R   0.789930 0.443180 0.997130 -0.107134
N9    N     N_R   0.054040 0.556820 0.847890 -0.045364
N10   N     N_R   0.848290 0.293830 0.791110 -0.046777
N11   N     N_R   0.995680 0.706170 0.053910 -0.036364
N12   N     N_R   0.052920 0.706170 0.997130 -0.040452
N13   N     N_R   0.791050 0.293830 0.847890 -0.047587
N14   N     N_R   0.846330 0.556820 0.053910 -0.068197
N15   N     N_R   0.997640 0.443180 0.791110 -0.040834
N16   N     N_R   0.208950 0.706170 0.152110 -0.057953
Ni1   Ni    Ni4+2 0.869690 0.369690 0.000000 0.210486
Ni2   Ni    Ni4+2 0.130310 0.630310 0.000000 0.220092
Ni3   Ni    Ni4+2 0.000970 0.369690 0.869780 0.218992
Ni4   Ni    Ni4+2 0.999030 0.630310 0.130220 0.217764
O1    O     O_3   0.607453 0.295537 0.888438 -0.670096

loop_
_geom_bond_atom_site_label_1
_geom_bond_atom_site_label_2
_ccdc_geom_bond_type
C25   C31   A    
C66   C68   A    
C63   C65   A    
C58   C62   S    
C6    C45   A    
C54   H29   S    
C27   C29   A    
C50   H26   S    
C41   C42   A    
N8    N14   A    
C35   C36   A    
C9    C72   S    
C3    C6    A    
N7    Ni3   S    
C81   C82   A    
C79   H50   S    
C39   C41   A    
N14   Ni4   S    
N12   Ni2   S    
C26   C27   A    
C43   Cl1   S    
C18   C24   A    
C63   H42   S    
C36   C37   A    
C45   N8    A    
C86   H59   S    
C9    C88   A    
C30   C31   A    
C21   H8    S    
C57   C59   S    
N6    Ni4   S    
C10   C17   A    
C23   C40   A    
C40   H37   S    
C60   C62   S    
C18   C19   A    
C73   C74   A    
C34   C52   A    
C16   H16   S    
C52   H49   S    
C83   H54   S    
C75   C85   S    
C83   C84   A    
N16   Ni2   S    
C68   C69   A    
C88   N12   A    
C56   N9    A    
C51   H28   S    
C87   H62   S    
C32   C38   A    
C4    C12   A    
C29   C30   A    
C58   Cl3   S    
N1    N7    A    
C73   C84   S    
C65   H43   S    
C45   O1    S    
C52   N5    A    
C47   C53   A    
C55   H31   S    
C28   C34   A    
C87   H60   S    
C21   C22   A    
C1    C85   A    
C79   C84   A    
C62   H38   S    
C7    C56   A    
C15   H6    S    
C15   C17   A    
C14   H5    S    
C44   C46   A    
C71   H47   S    
C54   C59   S    
C69   H46   S    
C23   C60   S    
C22   C34   S    
C55   H32   S    
C42   C53   S    
C74   C75   A    
C16   N2    A    
C13   C14   A    
C57   H39   S    
C8    C41   S    
C88   H45   S    
C64   N6    A    
C86   H58   S    
N11   N12   A    
C5    C7    A    
C40   N4    A    
C86   C87   S    
C72   C73   A    
N2    N4    A    
C10   H2    S    
N9    Ni2   S    
C5    H64   S    
N15   Ni3   S    
C82   C83   A    
C28   N3    A    
C29   H13   S    
C60   C61   S    
C51   C53   A    
C38   H15   S    
C43   C44   A    
C37   C38   A    
C4    H4    S    
N5    Ni1   S    
C25   H9    S    
C47   C48   A    
C63   C70   A    
C70   H41   S    
C50   C51   A    
N10   Ni3   S    
N8    Ni1   S    
C57   C61   S    
C75   C77   A    
C76   H57   S    
N9    N15   A    
N10   N13   A    
C39   C46   A    
C17   H65   S    
C11   H3    S    
C82   H53   S    
C48   C49   A    
C54   H30   S    
C65   C66   A    
C1    H1    S    
C7    C19   S    
C87   H61   S    
C48   H24   S    
C30   H14   S    
C36   H19   S    
C86   O1    S    
C22   C24   A    
C58   C59   S    
C33   H18   S    
C42   C43   A    
C71   C77   A    
C61   Cl2   S    
C5    N15   A    
C47   H22   S    
C66   C77   S    
C54   C55   S    
C39   H21   S    
C4    N16   A    
C64   H55   S    
C78   H34   S    
N4    Ni2   S    
C6    C59   S    
C67   H23   S    
C68   H44   S    
C2    C8    A    
C56   H12   S    
C80   C81   A    
C2    H56   S    
C3    N14   A    
C58   H35   S    
C16   C23   A    
C74   H48   S    
C27   H11   S    
C80   H51   S    
N3    Ni4   S    
C32   C33   A    
C19   C20   A    
C1    N1    A    
N3    N5    A    
C25   C26   A    
C71   C72   A    
C26   H10   S    
C28   H27   S    
C57   H33   S    
C11   C13   A    
C62   H36   S    
C12   C64   A    
C33   C35   A    
C9    C78   A    
C3    H63   S    
C69   C70   A    
C78   N11   A    
C37   H20   S    
C10   C11   A    
C61   H40   S    
C2    N13   A    
C79   C80   A    
N2    Ni3   S    
C81   H52   S    
C49   H25   S    
N6    N16   A    
C20   C21   A    
C13   C24   S    
C8    C67   A    
C12   C44   S    
C49   C50   A    
C32   H17   S    
N1    Ni1   S    
N13   Ni1   S    
C14   C15   A    
C76   N7    A    
C18   H7    S    
C55   C60   S    
C35   C46   S    
C76   C85   A    
C67   N10   A    
N11   Ni4   S    
C20   C31   S    
