data_str_m9_o7_o18_f0_sra.sym.32
_audit_creation_date              2012-12-11T17:36:16-0500
_audit_creation_method            fapswitch 2.2
_symmetry_space_group_name_H-M    P1
_symmetry_Int_Tables_number       1
_space_group_crystal_system       triclinic
_cell_length_a                    25.901052
_cell_length_b                    6.89092
_cell_length_c                    21.689255
_cell_angle_alpha                 90.000158
_cell_angle_beta                  96.125462
_cell_angle_gamma                 90.000133
_cell_volume                      3849.04146853

loop_
_atom_site_label
_atom_site_type_symbol
_atom_type_description
_atom_site_fract_x
_atom_site_fract_y
_atom_site_fract_z
_atom_type_partial_charge
O1    O     O_R   0.208650 0.594520 0.175450 -0.532994
O2    O     O_R   0.791350 0.405480 0.824550 -0.532994
O3    O     O_R   0.291350 0.094520 0.324550 -0.532994
O4    O     O_R   0.708650 0.905480 0.675450 -0.532994
O5    O     O_R   0.192980 0.260780 0.300160 -0.543416
O6    O     O_R   0.807020 0.739220 0.699840 -0.543416
O7    O     O_R   0.307020 0.760780 0.199840 -0.543416
O8    O     O_R   0.692980 0.239220 0.800160 -0.543416
C1    C     C_R   0.179933 0.433181 0.319989 0.694073
C2    C     C_R   0.820067 0.566819 0.680011 0.694074
C3    C     C_R   0.320067 0.933181 0.180011 0.694074
C4    C     C_R   0.679933 0.066819 0.819988 0.694074
O9    O     O_R   0.202550 0.264660 0.174420 -0.537745
O10   O     O_R   0.797450 0.735340 0.825580 -0.537744
O11   O     O_R   0.297450 0.764660 0.325580 -0.537745
O12   O     O_R   0.702550 0.235340 0.674420 -0.537744
O13   O     O_R   0.300990 0.096480 0.197920 -0.532942
O14   O     O_R   0.699010 0.903520 0.802080 -0.532942
O15   O     O_R   0.199010 0.596480 0.302080 -0.532942
O16   O     O_R   0.800990 0.403520 0.697920 -0.532943
C5    C     C_R   0.190925 0.434005 0.151176 0.712045
C6    C     C_R   0.809074 0.565994 0.848823 0.712044
C7    C     C_R   0.309074 0.934006 0.348823 0.712044
C8    C     C_R   0.690925 0.065994 0.651176 0.712044
O17   O     O_3   0.282290 0.427760 0.257860 -0.364664
O18   O     O_3   0.717710 0.572240 0.742140 -0.364664
O19   O     O_3   0.217710 0.927760 0.242140 -0.364664
O20   O     O_3   0.782290 0.072240 0.757860 -0.364664
V1    V     V_3+5 0.244010 0.152080 0.248540 1.406604
V2    V     V_3+5 0.755990 0.847920 0.751460 1.406603
V3    V     V_3+5 0.255990 0.652080 0.251460 1.406603
V4    V     V_3+5 0.744010 0.347920 0.748540 1.406603
C9    C     C_R   0.657609 0.054058 0.591710 -0.084845
C10   C     C_R   0.342390 0.945942 0.408289 -0.084845
C11   C     C_R   0.842391 0.554062 0.908289 -0.084845
C12   C     C_R   0.157609 0.445938 0.091711 -0.084845
C13   C     C_R   0.650726 0.016689 0.479814 0.178853
C14   C     C_R   0.349274 0.983313 0.520186 0.178852
C15   C     C_R   0.849274 0.516725 0.020187 0.178854
C16   C     C_R   0.150726 0.483274 0.979813 0.178854
C17   C     C_R   0.680784 0.037393 0.536975 -0.169668
C18   C     C_R   0.319216 0.962607 0.463025 -0.169668
C19   C     C_R   0.819217 0.537421 0.963025 -0.169669
C20   C     C_R   0.180783 0.462579 0.036975 -0.169669
C21   C     C_R   0.603352 0.047683 0.589919 -0.221245
C22   C     C_R   0.396648 0.952320 0.410081 -0.221245
C23   C     C_R   0.896648 0.547672 0.910081 -0.221245
C24   C     C_R   0.103352 0.452328 0.089919 -0.221245
C25   C     C_R   0.571002 0.023792 0.532986 0.053145
C26   C     C_R   0.428998 0.976212 0.467014 0.053145
C27   C     C_R   0.928998 0.523793 0.967014 0.053144
C28   C     C_R   0.071002 0.476207 0.032986 0.053144
C29   C     C_R   0.595663 0.009097 0.477504 0.122143
C30   C     C_R   0.404336 0.990908 0.522495 0.122143
C31   C     C_R   0.904337 0.509120 0.022496 0.122143
C32   C     C_R   0.095663 0.490879 0.977504 0.122143
C33   C     C_R   0.515176 0.012546 0.529386 0.072835
C34   C     C_R   0.484824 0.987460 0.470614 0.072835
C35   C     C_R   0.984824 0.512537 0.970614 0.072833
C36   C     C_R   0.015175 0.487463 0.029386 0.072833
C37   C     C_R   0.511312 0.974989 0.417290 -0.192892
C38   C     C_R   0.488688 0.025018 0.582710 -0.192892
C39   C     C_R   0.988688 0.475011 0.082712 -0.192889
C40   C     C_R   0.011312 0.524988 0.917288 -0.192889
C41   C     C_R   0.565000 0.985631 0.420716 -0.199717
C42   C     C_R   0.434999 0.014376 0.579284 -0.199718
C43   C     C_R   0.935000 0.485663 0.079286 -0.199716
C44   C     C_R   0.065000 0.514336 0.920714 -0.199716
H1    H     H_    0.582213 0.974314 0.377562 0.138906
H2    H     H_    0.417786 0.025694 0.622438 0.138906
H3    H     H_    0.917787 0.474362 0.122440 0.138905
H4    H     H_    0.082213 0.525637 0.877559 0.138905
H5    H     H_    0.411994 0.940932 0.366021 0.100162
H6    H     H_    0.588005 0.059069 0.633979 0.100162
H7    H     H_    0.088006 0.440960 0.133980 0.100162
H8    H     H_    0.911994 0.559041 0.866020 0.100162
H9    H     H_    0.277241 0.961083 0.460915 0.111084
H10   H     H_    0.722759 0.038916 0.539085 0.111084
H11   H     H_    0.222758 0.461046 0.039084 0.111084
H12   H     H_    0.777242 0.538953 0.960916 0.111084
H13   H     H_    0.491729 0.956451 0.371390 0.123276
H14   H     H_    0.508271 0.043557 0.628610 0.123276
H15   H     H_    0.008271 0.456479 0.128612 0.123275
H16   H     H_    0.991729 0.543520 0.871388 0.123275
C45   C     C_R   0.438328 0.813125 0.095898 -0.137231
C46   C     C_R   0.561672 0.186875 0.904102 -0.137231
C47   C     C_R   0.061672 0.313124 0.404102 -0.137231
C48   C     C_R   0.938327 0.686877 0.595897 -0.137231
H17   H     H_    0.467045 0.698592 0.096770 0.120300
H18   H     H_    0.532955 0.301408 0.903230 0.120300
H19   H     H_    0.032955 0.198590 0.403231 0.120299
H20   H     H_    0.967044 0.801412 0.596768 0.120300
C49   C     C_R   0.398513 0.800211 0.134931 -0.218447
C50   C     C_R   0.601487 0.199789 0.865069 -0.218447
C51   C     C_R   0.101487 0.300210 0.365069 -0.218447
C52   C     C_R   0.898513 0.699791 0.634930 -0.218447
H21   H     H_    0.397738 0.675748 0.165312 0.133199
H22   H     H_    0.602262 0.324252 0.834688 0.133199
H23   H     H_    0.102263 0.175746 0.334688 0.133199
H24   H     H_    0.897737 0.824256 0.665311 0.133199
C53   C     C_R   0.360849 0.947648 0.135860 -0.069213
C54   C     C_R   0.639151 0.052352 0.864140 -0.069214
C55   C     C_R   0.139151 0.447649 0.364140 -0.069214
C56   C     C_R   0.860848 0.552351 0.635860 -0.069214
C57   C     C_R   0.363248 0.107848 0.094354 0.156304
C58   C     C_R   0.636752 0.892152 0.905645 0.156303
C59   C     C_R   0.136752 0.607849 0.405645 0.156304
C60   C     C_R   0.863248 0.392150 0.594355 0.156303
C61   C     C_R   0.403592 0.118207 0.055752 -0.132453
C62   C     C_R   0.596408 0.881793 0.944247 -0.132453
C63   C     C_R   0.096408 0.618209 0.444247 -0.132453
C64   C     C_R   0.903593 0.381791 0.555753 -0.132454
H25   H     H_    0.405743 0.240648 0.024712 0.114422
H26   H     H_    0.594256 0.759352 0.975288 0.114422
H27   H     H_    0.094256 0.740650 0.475288 0.114422
H28   H     H_    0.905744 0.259349 0.524713 0.114422
C65   C     C_R   0.441301 0.973167 0.056571 0.084408
C66   C     C_R   0.558699 0.026833 0.943429 0.084408
C67   C     C_R   0.058699 0.473168 0.443429 0.084407
C68   C     C_R   0.941301 0.526833 0.556570 0.084408
C69   C     C_1   0.482801 0.991085 0.016751 -0.051241
C70   C     C_1   0.517199 0.008915 0.983248 -0.051241
C71   C     C_1   0.017199 0.491086 0.483248 -0.051241
C72   C     C_1   0.982801 0.508915 0.516751 -0.051241
C73   C     C_3   0.678502 0.000926 0.422224 -0.811503
H29   H     H_    0.666266 0.121330 0.389905 0.209432
H30   H     H_    0.721344 0.009860 0.433009 0.211276
H31   H     H_    0.669364 0.859468 0.399079 0.210406
C74   C     C_3   0.321498 0.999078 0.577775 -0.811500
H32   H     H_    0.330634 0.140540 0.600919 0.210406
H33   H     H_    0.278655 0.990137 0.566990 0.211276
H34   H     H_    0.333735 0.878678 0.610096 0.209431
C75   C     C_3   0.821498 0.500985 0.077778 -0.811503
H35   H     H_    0.830634 0.359531 0.100926 0.210406
H36   H     H_    0.833737 0.621395 0.110094 0.209433
H37   H     H_    0.778656 0.509927 0.066993 0.211277
C76   C     C_3   0.178501 0.499013 0.922222 -0.811502
H38   H     H_    0.169366 0.640467 0.899073 0.210406
H39   H     H_    0.221344 0.490071 0.933007 0.211277
H40   H     H_    0.166263 0.378603 0.889906 0.209433
C77   C     C_3   0.322910 0.266728 0.088414 -0.763221
H41   H     H_    0.283457 0.202109 0.081394 0.199156
H42   H     H_    0.326858 0.359523 0.130473 0.222883
H43   H     H_    0.327176 0.362733 0.048118 0.188526
C78   C     C_3   0.677089 0.733272 0.911586 -0.763220
H44   H     H_    0.716543 0.797891 0.918606 0.199155
H45   H     H_    0.672824 0.637266 0.951882 0.188526
H46   H     H_    0.673142 0.640477 0.869527 0.222882
C79   C     C_3   0.177090 0.766730 0.411586 -0.763222
H47   H     H_    0.216543 0.702113 0.418607 0.199157
H48   H     H_    0.173143 0.859524 0.369527 0.222882
H49   H     H_    0.172824 0.862737 0.451882 0.188526
C80   C     C_3   0.822911 0.233267 0.588415 -0.763219
H50   H     H_    0.783457 0.297883 0.581394 0.199156
H51   H     H_    0.827177 0.137259 0.548120 0.188526
H52   H     H_    0.826858 0.140475 0.630474 0.222882

loop_
_geom_bond_atom_site_label_1
_geom_bond_atom_site_label_2
_ccdc_geom_bond_type
O17   V3    S    
C48   C52   A    
O1    C5    A    
C47   H19   S    
O19   V1    S    
C9    C21   A    
O3    C7    A    
C10   C18   A    
C56   C60   A    
C11   C23   A    
C62   C66   A    
C78   H44   S    
C61   C65   A    
C71   C72   T    
C5    C12   S    
C42   H2    S    
O7    C3    A    
C6    C11   S    
C76   H39   S    
O5    C1    A    
C26   C30   A    
C58   C78   S    
C28   C36   A    
C36   C39   A    
C40   C44   A    
O9    V1    S    
C23   H8    S    
C14   C18   A    
C77   H42   S    
C15   C75   S    
O4    C8    A    
C51   H23   S    
C44   H4    S    
C43   H3    S    
C50   H22   S    
O1    V3    S    
O13   V1    S    
O2    V4    S    
C66   C70   S    
O3    V1    S    
C65   C69   S    
C40   H16   S    
C46   C50   A    
C45   C49   A    
C1    O15   A    
C15   C31   A    
C60   C80   S    
C48   H20   S    
C2    O16   A    
C16   C32   A    
C47   C51   A    
O2    C6    A    
C75   H37   S    
C54   C58   A    
C10   C22   A    
C21   C25   A    
C80   H51   S    
C11   C19   A    
C62   H26   S    
C16   C20   A    
O5    V1    S    
C1    C55   S    
C74   H34   S    
C13   C29   A    
C34   C37   A    
O11   C7    A    
C38   H14   S    
O15   V3    S    
C35   C36   A    
O12   C8    A    
O17   V1    S    
C24   H7    S    
C47   C67   A    
O10   V2    S    
C78   H45   S    
C51   C55   A    
C13   C73   S    
C53   C57   A    
C76   H40   S    
C39   C43   A    
O7    V3    S    
C38   C42   A    
O19   V3    S    
C26   C34   A    
C14   C74   S    
C33   C38   A    
C46   C66   A    
C46   H18   S    
C77   H43   S    
C49   C53   A    
C17   H10   S    
C64   C68   A    
C45   H17   S    
O18   V4    S    
C15   C19   A    
C19   H12   S    
C32   C44   A    
C60   C64   A    
C39   H15   S    
C21   H6    S    
O8    V4    S    
C4    C54   S    
C73   H31   S    
C63   H27   S    
C31   C43   A    
C14   C30   A    
O20   V4    S    
O8    C4    A    
C7    C10   S    
C16   C76   S    
C35   C40   A    
O9    C5    A    
C3    C53   S    
C80   H52   S    
C45   C65   A    
C69   C70   T    
O14   V2    S    
C63   C67   A    
O6    V2    S    
O18   V2    S    
C67   C71   S    
C52   C56   A    
C75   H35   S    
C79   H49   S    
C48   C68   A    
C49   H21   S    
C64   H28   S    
C78   H46   S    
C29   C41   A    
C75   H36   S    
C74   H32   S    
O16   V4    S    
C57   C61   A    
C3    O13   A    
C59   C63   A    
C20   H11   S    
O6    C2    A    
C25   C33   A    
C23   C27   A    
O11   V3    S    
C30   C42   A    
C61   H25   S    
O12   V4    S    
C76   H38   S    
C22   C26   A    
C8    C9    S    
C9    C17   A    
O10   C6    A    
C79   H48   S    
O20   V2    S    
C37   H13   S    
C79   H47   S    
C57   C77   S    
C33   C34   A    
C73   H29   S    
C41   H1    S    
C52   H24   S    
C2    C56   S    
C12   C24   A    
C27   C31   A    
C13   C17   A    
C25   C29   A    
C12   C20   A    
C68   C72   S    
C59   C79   S    
C37   C41   A    
C24   C28   A    
C27   C35   A    
C50   C54   A    
C18   H9    S    
C58   C62   A    
C4    O14   A    
C73   H30   S    
C55   C59   A    
C80   H50   S    
C77   H41   S    
C22   H5    S    
O4    V2    S    
C28   C32   A    
C74   H33   S    
