data_str_m2_o18_o22_f0_pcu.sym.119
_audit_creation_date              2012-12-10T17:48:48-0500
_audit_creation_method            fapswitch 2.2
_symmetry_space_group_name_H-M    P1
_symmetry_Int_Tables_number       1
_space_group_crystal_system       triclinic
_cell_length_a                    10.805843
_cell_length_b                    14.636123
_cell_length_c                    14.669346
_cell_angle_alpha                 64.598229
_cell_angle_beta                  103.669734
_cell_angle_gamma                 102.375766
_cell_volume                      2019.44902873

loop_
_atom_site_label
_atom_site_type_symbol
_atom_type_description
_atom_site_fract_x
_atom_site_fract_y
_atom_site_fract_z
_atom_type_partial_charge
C1    C     C_R   0.474699 0.120150 0.311667 0.797995
C2    C     C_3   0.880618 0.991650 0.510785 -0.163607
C3    C     C_3   0.966770 0.000254 0.612541 0.799862
C4    C     C_3   0.926574 0.087137 0.417654 -0.549163
C5    C     C_R   0.446993 0.187699 0.202740 -0.084874
C6    C     C_R   0.520002 0.810884 0.798012 -0.231962
C7    C     C_R   0.393164 0.214723 0.023640 -0.200201
C8    C     C_R   0.417581 0.149119 0.126475 -0.192127
C9    C     C_R   0.445677 0.291623 0.175150 -0.224284
C10   C     C_R   0.414207 0.357996 0.072472 0.114475
C11   C     C_R   0.394989 0.319317 0.995984 0.150950
C12   C     C_R   0.260585 0.000020 0.501447 0.894705
C13   C     C_R   0.411992 0.463581 0.043483 -0.134617
C14   C     C_R   0.424517 0.531177 0.941640 0.022491
C15   C     C_R   0.396764 0.490733 0.866072 -0.126963
C16   C     C_R   0.379650 0.385939 0.893038 -0.266372
C17   C     C_R   0.394079 0.503969 0.111156 0.353211
C18   C     C_R   0.419046 0.609320 0.085663 0.451871
C19   C     C_R   0.455217 0.675896 0.990512 -0.151582
C20   C     C_R   0.460432 0.637041 0.918287 -0.087184
C21   C     C_R   0.488682 0.780709 0.967446 -0.241115
C22   C     C_R   0.523673 0.848267 0.872680 0.396896
C23   C     C_R   0.520423 0.879608 0.688718 0.829071
C24   C     C_R   0.508151 0.704938 0.827028 0.420936
C25   C     C_R   0.707715 0.278786 0.675633 -0.343850
C26   C     C_R   0.678948 0.200091 0.641847 0.112552
C27   C     C_R   0.514296 0.283807 0.511889 -0.012995
C28   C     C_R   0.535622 0.364837 0.544679 0.007077
C29   C     C_R   0.636474 0.361406 0.627374 0.179953
C30   C     C_R   0.461080 0.448247 0.499182 -0.026571
C31   C     C_R   0.497716 0.531538 0.530397 0.065274
C32   C     C_R   0.594365 0.521924 0.616048 -0.224490
C33   C     C_R   0.662717 0.438711 0.663359 -0.220484
C34   C     C_R   0.740795 0.996236 0.504821 0.848042
C35   C     C_R   0.348463 0.449336 0.426955 -0.280137
C36   C     C_R   0.277031 0.531318 0.382800 0.526034
C37   C     C_R   0.324125 0.620026 0.401808 0.035786
C38   C     C_R   0.434353 0.620774 0.476552 -0.117105
C39   C     C_R   0.262843 0.708185 0.346960 -0.273985
C40   C     C_R   0.309332 0.794945 0.367312 0.042548
C41   C     C_R   0.478039 0.712260 0.492549 0.052299
C42   C     C_3   0.048365 0.893319 0.514779 -0.442698
C43   C     C_3   0.899990 0.892065 0.500290 0.886131
C44   C     C_3   0.112657 0.016662 0.601068 0.201432
C45   C     C_3   0.064567 0.083676 0.407385 0.240274
C46   C     C_3   0.123893 0.998882 0.505876 -0.153978
Cu1   Cu    Cu3+1 0.465900 0.918260 0.475680 0.968648
Cu2   Cu    Cu3+1 0.534100 0.081740 0.524320 0.939226
H1    H     H_    0.088924 0.837495 0.589882 0.189947
H2    H     H_    0.924786 0.158108 0.427309 0.177691
H3    H     H_    0.152979 0.097984 0.585616 0.071705
H4    H     H_    0.360703 0.357385 0.833373 0.147859
H5    H     H_    0.375073 0.184006 0.965693 0.137113
H6    H     H_    0.416263 0.068696 0.146075 0.157242
H7    H     H_    0.475332 0.320803 0.234265 0.201125
H8    H     H_    0.068883 0.872071 0.456809 0.197503
H9    H     H_    0.385799 0.539338 0.785419 0.195959
H10   H     H_    0.485479 0.811342 0.022082 0.195293
H11   H     H_    0.736642 0.434809 0.728914 0.134741
H12   H     H_    0.562671 0.719665 0.546311 0.172679
H13   H     H_    0.260061 0.861869 0.326686 0.132736
H14   H     H_    0.783272 0.274037 0.740379 0.131938
H15   H     H_    0.728813 0.133787 0.681635 0.149841
H16   H     H_    0.441078 0.281243 0.448593 0.137654
H17   H     H_    0.615079 0.576200 0.650591 0.167115
H18   H     H_    0.310127 0.385351 0.406178 0.162246
H19   H     H_    0.179220 0.710403 0.288712 0.172896
H20   H     H_    0.123964 0.158304 0.400910 0.050079
H21   H     H_    0.859524 0.092942 0.345493 0.229391
N1    N     N_R   0.585360 0.204570 0.560800 -0.184983
N2    N     N_R   0.414550 0.795430 0.439160 -0.184177
O1    O     O_R   0.455060 0.022100 0.338110 -0.586075
O2    O     O_R   0.512640 0.160150 0.379180 -0.592008
O3    O     O_R   0.288900 0.930980 0.479450 -0.587137
O4    O     O_R   0.346480 0.069030 0.520520 -0.622975
O5    O     O_R   0.487360 0.839850 0.620820 -0.544798
O6    O     O_R   0.544940 0.977900 0.661890 -0.568704
O7    O     O_R   0.653520 0.930970 0.479480 -0.544299
O8    O     O_R   0.711100 0.069020 0.520550 -0.563361
O9    O     O_3   0.938207 0.086861 0.621882 -0.627205
C47   C     C_3   0.006314 0.102405 0.710221 -0.377897
H22   H     H_    0.034401 0.031649 0.775893 0.211531
H23   H     H_    0.944493 0.134463 0.736415 0.164089
H24   H     H_    0.090852 0.160880 0.690109 0.162309
O10   O     O_3   0.559414 0.669928 0.771666 -0.588120
C48   C     C_3   0.676163 0.632247 0.829440 -0.357609
H25   H     H_    0.658193 0.550678 0.881052 0.186926
H26   H     H_    0.732463 0.676416 0.874922 0.148531
H27   H     H_    0.737494 0.637447 0.776566 0.192167
O11   O     O_3   0.553019 0.951614 0.850672 -0.582660
C49   C     C_3   0.672706 0.969439 0.908670 -0.345797
H28   H     H_    0.702178 0.052977 0.881715 0.183752
H29   H     H_    0.748892 0.935852 0.898305 0.145781
H30   H     H_    0.665937 0.940099 0.991127 0.162837
O12   O     O_3   0.404347 0.647339 0.153557 -0.546060
C50   C     C_3   0.518262 0.640513 0.225516 -0.309594
H31   H     H_    0.515368 0.684046 0.270767 0.186431
H32   H     H_    0.604381 0.674570 0.187472 0.135783
H33   H     H_    0.527386 0.559985 0.279158 0.196488
O13   O     O_3   0.345011 0.442451 0.200240 -0.588765
C51   C     C_3   0.210417 0.423474 0.175094 -0.259903
H34   H     H_    0.182268 0.384797 0.121173 0.134020
H35   H     H_    0.166147 0.495301 0.142315 0.211558
H36   H     H_    0.171099 0.371795 0.245929 0.167653
O14   O     O_3   0.165583 0.526340 0.314367 -0.605745
C52   C     C_3   0.057106 0.502235 0.362974 0.008219
H37   H     H_    0.976384 0.536662 0.303069 0.174084
H38   H     H_    0.070500 0.535430 0.420978 0.133462
C53   C     C_3   0.018470 0.386525 0.411378 -0.387388
H39   H     H_    0.003809 0.354754 0.352520 0.210317
H40   H     H_    0.096094 0.350237 0.473748 0.210299
C54   C     C_3   0.894755 0.360566 0.455606 -0.854138
H41   H     H_    0.907856 0.390107 0.515970 0.251383
H42   H     H_    0.868920 0.276606 0.490071 0.293277
H43   H     H_    0.814517 0.394147 0.394499 0.245960
O15   O     O_3   0.843408 0.904853 0.397259 -0.601149
C55   C     C_3   0.805303 0.815845 0.376304 0.116953
H44   H     H_    0.721155 0.832459 0.313882 0.162167
H45   H     H_    0.768334 0.747311 0.439102 0.154133
C56   C     C_3   0.911655 0.794281 0.337334 -0.392697
H46   H     H_    0.965185 0.867456 0.291244 0.255395
H47   H     H_    0.979809 0.749269 0.402846 0.191651
C57   C     C_3   0.858096 0.733849 0.270986 -0.976080
H48   H     H_    0.802910 0.660444 0.314479 0.255130
H49   H     H_    0.938382 0.717419 0.247493 0.255594
H50   H     H_    0.795925 0.779377 0.200758 0.255920
O16   O     O_3   0.834606 0.805238 0.573463 -0.597401
C58   C     C_3   0.894563 0.715091 0.620033 -0.414776
H51   H     H_    0.959140 0.712835 0.691939 0.216673
H52   H     H_    0.946483 0.704569 0.569129 0.145266
H53   H     H_    0.820309 0.648551 0.640838 0.177838
O17   O     O_3   0.181306 0.946675 0.690538 -0.565410
C59   C     C_3   0.276382 0.996201 0.744300 -0.218309
H54   H     H_    0.243159 0.056994 0.754327 0.109168
H55   H     H_    0.361523 0.029093 0.705710 0.225630
H56   H     H_    0.304825 0.938971 0.822172 0.210147
O18   O     O_3   0.946935 0.907757 0.700496 -0.552503
C60   C     C_3   0.829377 0.891351 0.734626 -0.282953
H57   H     H_    0.757022 0.844797 0.699664 0.205147
H58   H     H_    0.792114 0.961683 0.721005 0.186995
H59   H     H_    0.844076 0.846761 0.818470 0.154758
O19   O     O_3   0.062016 0.060902 0.322026 -0.571905
C61   C     C_3   0.073111 0.150775 0.232627 0.056313
H60   H     H_    0.172343 0.191569 0.238141 0.141851
H61   H     H_    0.002830 0.202101 0.220895 0.130811
C62   C     C_3   0.046491 0.121347 0.141023 -0.304460
H62   H     H_    0.121032 0.075284 0.149115 0.215824
H63   H     H_    0.951262 0.074002 0.139437 0.224376
C63   C     C_3   0.046588 0.215160 0.040350 -0.947634
H64   H     H_    0.969999 0.260609 0.029303 0.250337
H65   H     H_    0.028622 0.190900 0.975780 0.250224
H66   H     H_    0.140838 0.263490 0.039783 0.269375

loop_
_geom_bond_atom_site_label_1
_geom_bond_atom_site_label_2
_ccdc_geom_bond_type
C61   C62   S    
C51   H34   S    
C40   N2    A    
C12   O3    A    
O12   C50   S    
C23   O5    A    
C58   H51   S    
C54   H42   S    
C47   H22   S    
C57   H48   S    
C45   C46   S    
C7    C11   A    
C30   C35   A    
C1    C5    S    
Cu2   O8    S    
C36   C37   A    
C19   C21   A    
Cu1   O5    S    
C63   H65   S    
C30   C31   A    
C43   O15   S    
C48   H26   S    
C57   H49   S    
C52   H37   S    
C61   H60   S    
C6    C22   A    
C50   H33   S    
C29   C33   A    
O15   C55   S    
C18   C19   A    
C42   C46   S    
C54   H41   S    
C53   H40   S    
C42   H8    S    
C20   C24   A    
C44   C46   S    
O17   C59   S    
C50   H32   S    
C59   H56   S    
C3    O18   S    
C24   O10   S    
C56   C57   S    
C41   N2    A    
C2    C34   S    
O18   C60   S    
C33   H11   S    
C21   C22   A    
C55   C56   S    
C18   O12   S    
C15   H9    S    
Cu2   O4    S    
C3    O9    S    
C4    H21   S    
C47   H23   S    
C56   H47   S    
C62   H63   S    
C4    C45   S    
C25   C29   A    
C48   H27   S    
C3    C44   S    
C1    O1    A    
C14   C20   A    
C7    C8    A    
Cu1   O3    S    
C38   C41   A    
C12   C46   S    
C27   H16   S    
C53   C54   S    
C43   O16   S    
C49   H28   S    
C48   H25   S    
C57   H50   S    
C35   H18   S    
C25   C26   A    
O10   C48   S    
C10   C13   A    
C40   H13   S    
C4    H2    S    
C35   C36   A    
Cu2   O6    S    
C2    C4    S    
C26   H15   S    
C5    C9    A    
C37   C38   A    
C34   O8    A    
C49   H29   S    
C62   C63   S    
C11   C16   A    
Cu1   Cu2   S    
C2    C43   S    
C6    C24   A    
C50   H31   S    
C45   H20   S    
C17   C18   A    
C22   O11   S    
C23   O6    A    
Cu1   N2    S    
C27   N1    A    
C60   H58   S    
C9    H7    S    
C44   H3    S    
C51   H36   S    
C10   C11   A    
C45   O19   S    
C26   N1    A    
C63   H66   S    
C42   C43   S    
C7    H5    S    
C8    H6    S    
O16   C58   S    
C58   H53   S    
C39   C40   A    
C47   H24   S    
C56   H46   S    
C62   H62   S    
C9    C10   A    
C61   H61   S    
C28   C29   A    
C36   O14   S    
C14   C15   A    
C39   H19   S    
Cu2   O2    S    
C31   C32   A    
C16   H4    S    
C41   H12   S    
Cu2   N1    S    
O9    C47   S    
C60   H59   S    
C58   H52   S    
C5    C8    A    
C44   O17   S    
O14   C52   S    
C55   H44   S    
C31   C38   A    
C13   C17   A    
C1    O2    A    
C32   C33   A    
C19   C20   A    
C55   H45   S    
C2    C3    S    
C21   H10   S    
C37   C39   A    
C63   H64   S    
C34   O7    A    
C49   H30   S    
O11   C49   S    
C59   H54   S    
C52   H38   S    
C6    C23   S    
C28   C30   A    
O13   C51   S    
C25   H14   S    
C17   O13   S    
Cu1   O1    S    
C60   H57   S    
C42   H1    S    
C51   H35   S    
C12   O4    A    
C53   H39   S    
C27   C28   A    
C59   H55   S    
O19   C61   S    
Cu1   O7    S    
C13   C14   A    
C54   H43   S    
C15   C16   A    
C32   H17   S    
C52   C53   S    
