data_str_m9_o2_o19_f0_sra.sym.73
_audit_creation_date              2013-03-05T16:02:30-0500
_audit_creation_method            fapswitch 2.2
_symmetry_space_group_name_H-M    P1
_symmetry_Int_Tables_number       1
_space_group_crystal_system       triclinic
_cell_length_a                    16.65684
_cell_length_b                    7.266098
_cell_length_c                    15.154942
_cell_angle_alpha                 89.994847
_cell_angle_beta                  94.496141
_cell_angle_gamma                 89.994237
_cell_volume                      1828.5615684

loop_
_atom_site_label
_atom_site_type_symbol
_atom_site_description
_atom_site_fract_x
_atom_site_fract_y
_atom_site_fract_z
_atom_type_partial_charge
O1    O     O_R   0.663460 0.361760 0.165970 -0.580626
O2    O     O_R   0.336540 0.638240 0.834030 -0.581372
O3    O     O_R   0.836540 0.861760 0.334030 -0.577140
O4    O     O_R   0.163460 0.138240 0.665970 -0.586155
O5    O     O_R   0.827100 0.689870 0.163730 -0.584929
O6    O     O_R   0.172900 0.310130 0.836270 -0.584878
O7    O     O_R   0.672900 0.189870 0.336270 -0.588011
O8    O     O_R   0.327100 0.810130 0.663730 -0.583850
H1    H     H_    0.210177 0.031433 0.505770 0.162068
H2    H     H_    0.789895 0.045042 0.497057 0.162848
H3    H     H_    0.289210 0.512078 0.995957 0.158097
H4    H     H_    0.710918 0.520253 0.002312 0.159966
C1    C     C_R   0.853368 0.522837 0.143761 0.941578
C2    C     C_R   0.146852 0.476811 0.856516 0.941451
C3    C     C_R   0.646516 0.022879 0.356098 0.943185
C4    C     C_R   0.353515 0.976760 0.643928 0.942758
O9    O     O_R   0.663490 0.691370 0.155500 -0.581654
O10   O     O_R   0.336510 0.308630 0.844500 -0.581123
O11   O     O_R   0.836510 0.191370 0.344500 -0.586579
O12   O     O_R   0.163490 0.808630 0.655500 -0.578414
O13   O     O_R   0.671770 0.863320 0.325740 -0.585985
O14   O     O_R   0.328230 0.136680 0.674260 -0.590902
O15   O     O_R   0.828230 0.363320 0.174260 -0.587108
O16   O     O_R   0.171770 0.636680 0.825740 -0.585203
C5    C     C_R   0.634769 0.523424 0.135401 0.956020
C6    C     C_R   0.365693 0.477426 0.864001 0.955823
C7    C     C_R   0.865290 0.023593 0.364520 0.952457
C8    C     C_R   0.134352 0.977613 0.635904 0.954018
O17   O     O_3   0.752910 0.528800 0.305860 -0.276746
O18   O     O_3   0.247090 0.471200 0.694140 -0.277644
O19   O     O_3   0.747090 0.028800 0.194140 -0.274829
O20   O     O_3   0.252910 0.971200 0.805860 -0.273045
V1    V     V_3+5 0.749460 0.803010 0.239640 1.197143
V2    V     V_3+5 0.250540 0.196990 0.760360 1.193852
V3    V     V_3+5 0.750540 0.303010 0.260360 1.192083
V4    V     V_3+5 0.249460 0.696990 0.739640 1.197012
C9    C     C_1   0.469330 0.992782 0.530646 0.210769
C10   C     C_1   0.530871 0.003652 0.469465 0.208176
C11   C     C_1   0.031553 0.493147 0.970403 0.212439
C12   C     C_1   0.969443 0.503914 0.030901 0.212324
C13   C     C_R   0.037036 0.070617 0.320667 -0.075620
C14   C     C_R   0.963779 0.040406 0.682186 -0.074322
C15   C     C_R   0.463216 0.580742 0.177805 -0.069482
C16   C     C_R   0.536371 0.543544 0.818289 -0.070836
C17   C     C_R   0.117698 0.108017 0.303077 0.248320
C18   C     C_R   0.883854 0.080353 0.701774 0.246743
C19   C     C_R   0.382822 0.621980 0.194249 0.253143
C20   C     C_R   0.616476 0.582385 0.799401 0.255124
C21   C     C_R   0.179645 0.096060 0.371165 0.307220
C22   C     C_R   0.821114 0.080795 0.634139 0.309693
C23   C     C_R   0.320174 0.593217 0.128339 0.317324
C24   C     C_R   0.679635 0.567900 0.866032 0.320616
C25   C     C_R   0.160791 0.041711 0.455437 -0.313211
C26   C     C_R   0.839410 0.044054 0.547485 -0.315214
C27   C     C_R   0.339044 0.533252 0.044971 -0.307274
C28   C     C_R   0.661100 0.529150 0.952365 -0.312914
C29   C     C_R   0.080524 0.017981 0.477429 0.039583
C30   C     C_R   0.919357 0.021831 0.524051 0.037977
C31   C     C_R   0.419505 0.515096 0.022468 0.037515
C32   C     C_R   0.580839 0.515492 0.975941 0.035607
C33   C     C_R   0.016604 0.032694 0.409306 0.043247
C34   C     C_R   0.983415 0.015150 0.592281 0.045355
C35   C     C_R   0.483529 0.533843 0.090242 0.043644
C36   C     C_R   0.516680 0.513002 0.907750 0.043924
C37   C     C_R   0.064418 0.993658 0.567749 -0.191886
C38   C     C_R   0.935160 0.018074 0.432961 -0.189948
C39   C     C_R   0.435605 0.492279 0.932137 -0.189564
C40   C     C_R   0.564953 0.516667 0.066932 -0.188513
C41   C     C_1   0.416670 0.984751 0.582268 -0.230164
C42   C     C_1   0.583456 0.013084 0.417809 -0.229192
C43   C     C_1   0.084222 0.484907 0.918814 -0.234435
C44   C     C_1   0.916514 0.513064 0.082142 -0.233346
N1    N     N_R   0.136458 0.154316 0.214873 0.257464
O21   O     O_R   0.185287 0.051285 0.173596 -0.304747
O22   O     O_R   0.106794 0.302236 0.176550 -0.383527
N2    N     N_R   0.867250 0.119711 0.791358 0.257061
O23   O     O_R   0.822723 0.008561 0.833844 -0.308253
O24   O     O_R   0.895179 0.268820 0.830054 -0.380858
N3    N     N_R   0.366881 0.712533 0.275026 0.253812
O25   O     O_R   0.341856 0.619791 0.340964 -0.318627
O26   O     O_R   0.385888 0.885041 0.285760 -0.363796
N4    N     N_R   0.631538 0.654720 0.714216 0.252576
O27   O     O_R   0.656786 0.548269 0.653187 -0.316983
O28   O     O_R   0.613163 0.824823 0.695264 -0.371202
N5    N     N_R   0.739134 0.127114 0.650854 0.288405
O29   O     O_R   0.722098 0.206652 0.723942 -0.289487
O30   O     O_R   0.681304 0.106942 0.588884 -0.383287
N6    N     N_R   0.261444 0.148220 0.357401 0.285659
O31   O     O_R   0.277238 0.258226 0.293288 -0.285002
O32   O     O_R   0.319738 0.106743 0.416094 -0.385811
N7    N     N_R   0.762387 0.603222 0.848878 0.284829
O33   O     O_R   0.786343 0.593662 0.769363 -0.287006
O34   O     O_R   0.815496 0.641478 0.913825 -0.388156
N8    N     N_R   0.237555 0.635630 0.142747 0.281923
O35   O     O_R   0.211710 0.629870 0.221484 -0.279162
O36   O     O_R   0.186743 0.677751 0.076210 -0.393909
N9    N     N_2   0.976708 0.079533 0.248987 -0.117374
H5    H     H_    0.972547 0.205706 0.218030 0.207764
C45   C     C_3   0.976412 0.927031 0.187719 -0.713028
H6    H     H_    0.924746 0.942451 0.137493 0.248544
H7    H     H_    0.971217 0.795108 0.223820 0.233828
H8    H     H_    0.032013 0.924251 0.152111 0.271697
N10   N     N_2   0.024446 0.036768 0.753581 -0.115026
H9    H     H_    0.029137 0.157370 0.789300 0.209355
C46   C     C_3   0.023684 0.875262 0.809109 -0.727353
H10   H     H_    0.074781 0.883158 0.860466 0.249412
H11   H     H_    0.029028 0.749294 0.768494 0.236267
H12   H     H_    0.967619 0.866898 0.843675 0.275902
N11   N     N_2   0.523423 0.598369 0.249203 -0.117492
H13   H     H_    0.523572 0.723979 0.280719 0.203179
C47   C     C_3   0.526969 0.445679 0.310508 -0.720398
H14   H     H_    0.579211 0.464279 0.359770 0.248944
H15   H     H_    0.533562 0.314241 0.274396 0.238790
H16   H     H_    0.471742 0.438742 0.346664 0.274485
N12   N     N_2   0.475618 0.549813 0.747046 -0.114598
H17   H     H_    0.474699 0.670551 0.711337 0.204319
C48   C     C_3   0.472418 0.388721 0.691054 -0.731079
H18   H     H_    0.420272 0.400755 0.641177 0.248734
H19   H     H_    0.466153 0.262959 0.731573 0.238410
H20   H     H_    0.527549 0.376058 0.655152 0.277816

loop_
_geom_bond_atom_site_label_1
_geom_bond_atom_site_label_2
_geom_bond_distance
_ccdc_geom_bond_type
C30   C34   1.427255 A    
C16   C20   1.414875 A    
C10   C42   1.221578 T    
C9    C41   1.221643 T    
C2    C43   1.462034 S    
C47   H14   1.109524 S    
O10   C6    1.343719 A    
C19   N3    1.432874 S    
C14   N10   1.421652 S    
C18   N2    1.435409 S    
N9    H5    1.029663 S    
C15   C35   1.435987 A    
N5    O29   1.300282 A    
C16   C36   1.436892 A    
C46   H11   1.110502 S    
C22   C26   1.396981 A    
C6    C39   1.498496 S    
N2    O24   1.300618 A    
C27   C31   1.414755 A    
C48   H19   1.110391 S    
O8    V4    1.976114 S    
O6    C2    1.330431 A    
O3    V1    2.001824 S    
N12   H17   1.030222 S    
C1    O15   1.327683 A    
C17   N1    1.436336 S    
N1    O21   1.301157 A    
C2    O16   1.330237 A    
C22   N5    1.447840 S    
N9    C45   1.445501 S    
C33   C38   1.434036 A    
C30   C38   1.425729 A    
C16   N12   1.421454 S    
N12   C48   1.444329 S    
O5    V1    1.976094 S    
O19   V1    1.778808 S    
C13   C33   1.438009 A    
O11   C7    1.336058 A    
C14   C34   1.437702 A    
O5    C1    1.332949 A    
C31   C39   1.425154 A    
O7    C3    1.332835 A    
O8    C4    1.330529 A    
O1    C5    1.337135 A    
N1    O22   1.300552 A    
C21   N6    1.445082 S    
C5    C40   1.497428 S    
O9    V1    2.012145 S    
O4    C8    1.330585 A    
N5    O30   1.299847 A    
O14   V2    1.958058 S    
C46   H12   1.107660 S    
O4    V2    2.001823 S    
C36   C39   1.435716 A    
N2    O23   1.300701 A    
C47   H15   1.110485 S    
C48   H20   1.107310 S    
C11   C12   1.437278 S    
N3    O26   1.299957 A    
C25   C29   1.413593 A    
C19   C23   1.402490 A    
O12   C8    1.344836 A    
O6    V2    1.976094 S    
O20   V2    1.778809 S    
C9    C10   1.437266 S    
N7    O34   1.300849 A    
C45   H6    1.108967 S    
C17   C21   1.403575 A    
O2    C6    1.331425 A    
O16   V4    1.958063 S    
C13   C17   1.416459 A    
N8    O36   1.301111 A    
O10   V2    2.012145 S    
H4    C28   1.080379 S    
C45   H7    1.110410 S    
N6    O32   1.299737 A    
N4    O28   1.299961 A    
C14   C18   1.416552 A    
N10   C46   1.444638 S    
C13   N9    1.422281 S    
H1    C25   1.079700 S    
N7    O33   1.300618 A    
H3    C27   1.080662 S    
O1    V3    2.001707 S    
C26   C30   1.414079 A    
O2    V4    2.001707 S    
C3    C42   1.461863 S    
O17   V3    1.778931 S    
C35   C40   1.433490 A    
C4    O14   1.330142 A    
C12   C44   1.221501 T    
C34   C37   1.435860 A    
O7    V3    1.976117 S    
C4    C41   1.461959 S    
C29   C37   1.426304 A    
C29   C33   1.427752 A    
C1    C44   1.461980 S    
C46   H10   1.108884 S    
C18   C22   1.405291 A    
C31   C35   1.427978 A    
O18   V4    1.778930 S    
C32   C36   1.427311 A    
O9    C5    1.337218 A    
N11   C47   1.445255 S    
C8    C37   1.499568 S    
C7    C38   1.497531 S    
O11   V3    2.011937 S    
C48   H18   1.109276 S    
C3    O13   1.327815 A    
C21   C25   1.395871 A    
O3    C7    1.338316 A    
C20   N4    1.434054 S    
C47   H16   1.108163 S    
C23   C27   1.395436 A    
N8    O35   1.300559 A    
H2    C26   1.079584 S    
O15   V3    1.958064 S    
C23   N8    1.443457 S    
N3    O25   1.300636 A    
O12   V4    2.011936 S    
C28   C32   1.414114 A    
C20   C24   1.403888 A    
C45   H8    1.108029 S    
O13   V1    1.958058 S    
N6    O31   1.300831 A    
C32   C40   1.424380 A    
N4    O27   1.300611 A    
N10   H9    1.029811 S    
C11   C43   1.221478 T    
C24   N7    1.445563 S    
C15   N11   1.422256 S    
N11   H13   1.030071 S    
C15   C19   1.413271 A    
C24   C28   1.396318 A    
