data_str_m3_o1_o9_f0_pcu.sym.62
_audit_creation_date              2012-12-10T19:00:01-0500
_audit_creation_method            fapswitch 2.2
_symmetry_space_group_name_H-M    P1
_symmetry_Int_Tables_number       1
_space_group_crystal_system       triclinic
_cell_length_a                    10.725129
_cell_length_b                    10.639794
_cell_length_c                    9.815151
_cell_angle_alpha                 90.298626
_cell_angle_beta                  89.887718
_cell_angle_gamma                 89.474499
_cell_volume                      1119.97334972

loop_
_atom_site_label
_atom_site_type_symbol
_atom_type_description
_atom_site_fract_x
_atom_site_fract_y
_atom_site_fract_z
_atom_type_partial_charge
C1    C     C_R   0.500211 0.259961 0.499714 0.860602
C2    C     C_R   0.434434 0.065649 0.601469 -0.207579
C3    C     C_R   0.499870 0.872366 0.499967 0.001969
C4    C     C_R   0.500224 0.127692 0.499589 -0.012041
C5    C     C_R   0.431468 0.586869 0.072658 -0.048464
C6    C     C_R   0.568406 0.413023 0.927351 -0.053557
C7    C     C_R   0.431001 0.586461 0.928615 -0.082990
C8    C     C_R   0.568306 0.412945 0.071417 -0.086183
C9    C     C_R   0.260056 0.495688 0.499710 0.872788
C10   C     C_R   0.739998 0.503674 0.500396 0.873955
C11   C     C_R   0.177282 0.400525 0.023662 -0.196066
C12   C     C_R   0.499907 0.740058 0.500206 0.861076
C13   C     C_R   0.835220 0.585403 0.983097 -0.202488
C14   C     C_R   0.117220 0.451641 0.137779 -0.170546
C15   C     C_R   0.885846 0.534671 0.863607 -0.169960
C16   C     C_R   0.121969 0.389247 0.263242 0.115551
C17   C     C_R   0.879488 0.602035 0.741282 0.122209
C18   C     C_R   0.186909 0.274305 0.272936 -0.163608
C19   C     C_R   0.820676 0.720657 0.739715 -0.169341
C20   C     C_R   0.247704 0.222501 0.158213 0.238082
C21   C     C_R   0.770584 0.772766 0.860432 0.234793
C22   C     C_R   0.243106 0.287133 0.033831 -0.115352
C23   C     C_R   0.872466 0.505524 0.501531 -0.082074
C24   C     C_R   0.779330 0.704319 0.982205 -0.111519
C25   C     C_R   0.933688 0.455645 0.387367 -0.265560
C26   C     C_R   0.066426 0.541040 0.613495 -0.266221
C27   C     C_3   0.320443 0.100976 0.169246 -0.414980
C28   C     C_3   0.264017 0.997174 0.081540 -0.907535
C29   C     C_3   0.713442 0.903053 0.860814 -0.437173
C30   C     C_3   0.579014 0.903270 0.912627 -0.862004
C31   C     C_R   0.127608 0.491959 0.499139 -0.081434
C32   C     C_R   0.938601 0.548906 0.616431 0.009198
C33   C     C_R   0.061580 0.446738 0.385097 0.012354
C34   C     C_R   0.565572 0.063243 0.397614 -0.224693
C35   C     C_R   0.433512 0.936866 0.600986 -0.195173
C36   C     C_R   0.565232 0.934391 0.397664 -0.206434
H1    H     H_    0.291212 0.250190 0.944934 0.129943
H2    H     H_    0.816167 0.772859 0.645316 0.105561
H3    H     H_    0.881741 0.419432 0.301138 0.155155
H4    H     H_    0.118358 0.576738 0.700043 0.157224
H5    H     H_    0.616855 0.112408 0.319269 0.143475
H6    H     H_    0.380193 0.887788 0.677686 0.137503
H7    H     H_    0.616533 0.883351 0.319448 0.143614
H8    H     H_    0.382703 0.116638 0.679392 0.141607
H9    H     H_    0.376342 0.655945 0.127865 0.125196
H10   H     H_    0.623416 0.343858 0.872130 0.127160
H11   H     H_    0.268860 0.021770 0.971851 0.251761
H12   H     H_    0.743143 0.742922 0.076738 0.133347
H13   H     H_    0.317106 0.908276 0.096970 0.253601
H14   H     H_    0.165253 0.981831 0.110893 0.264806
H15   H     H_    0.418430 0.116841 0.137020 0.208178
H16   H     H_    0.322090 0.068119 0.276485 0.223207
H17   H     H_    0.523649 0.833052 0.855815 0.272915
H18   H     H_    0.575491 0.881084 0.022962 0.245267
H19   H     H_    0.536461 0.997754 0.897810 0.252187
H20   H     H_    0.769958 0.965412 0.927053 0.195668
H21   H     H_    0.714296 0.943292 0.756463 0.216058
H22   H     H_    0.375149 0.654922 0.874400 0.113893
H23   H     H_    0.623070 0.343603 0.125663 0.116257
H24   H     H_    0.174473 0.449899 0.927566 0.146481
H25   H     H_    0.839908 0.532744 0.076960 0.144909
H26   H     H_    0.069381 0.541261 0.129298 0.138508
H27   H     H_    0.930016 0.442772 0.866210 0.137833
H28   H     H_    0.191131 0.226397 0.370014 0.102608
N1    N     N_R   0.499970 0.499970 0.857200 -0.074736
N2    N     N_R   0.500030 0.500030 0.142800 -0.075547
O1    O     O_R   0.499990 0.316750 0.614620 -0.628670
O2    O     O_R   0.500010 0.683250 0.385380 -0.629701
O3    O     O_R   0.499990 0.316780 0.385290 -0.628211
O4    O     O_R   0.500010 0.683220 0.614710 -0.623221
O5    O     O_R   0.316760 0.500000 0.614660 -0.634104
O6    O     O_R   0.683240 0.500000 0.385340 -0.632296
O7    O     O_R   0.316760 0.500020 0.385330 -0.605390
O8    O     O_R   0.683240 0.499980 0.614670 -0.604163
Zn1   Zn    Zn3+2 0.500000 0.499980 0.653120 0.942571
Zn2   Zn    Zn3+2 0.500000 0.500020 0.346880 0.939941

loop_
_geom_bond_atom_site_label_1
_geom_bond_atom_site_label_2
_ccdc_geom_bond_type
C2    C35   A    
C28   H11   S    
C8    N2    A    
O6    Zn2   S    
C26   H4    S    
C26   C32   A    
C30   H18   S    
C19   C21   A    
C8    H23   S    
C11   C14   A    
C14   H26   S    
O3    Zn2   S    
C35   H6    S    
C3    C12   S    
C1    O1    A    
C28   H14   S    
C6    N1    A    
C2    H8    S    
C31   C33   A    
C7    H22   S    
C34   C36   A    
C26   C31   A    
C34   H5    S    
C9    O7    A    
C27   H15   S    
C30   H17   S    
C4    C34   A    
O8    Zn1   S    
C24   H12   S    
C5    C7    A    
C6    C8    A    
C22   H1    S    
C5    H9    S    
C1    O3    A    
C13   C24   A    
C2    C4    A    
C29   C30   S    
C19   H2    S    
C16   C33   S    
C7    N1    A    
C12   O2    A    
C28   H13   S    
C3    C35   A    
N2    Zn2   S    
C20   C27   S    
C20   C22   A    
C13   C15   A    
O7    Zn2   S    
C14   C16   A    
O1    Zn1   S    
C11   H24   S    
O4    Zn1   S    
C27   H16   S    
C15   C17   A    
C12   O4    A    
C6    H10   S    
C9    O5    A    
C29   H21   S    
C5    N2    A    
C29   H20   S    
C10   C23   S    
O2    Zn2   S    
C30   H19   S    
C11   C22   A    
N1    Zn1   S    
C1    C4    S    
C23   C32   A    
C25   H3    S    
O5    Zn1   S    
C10   O8    A    
C18   H28   S    
C21   C29   S    
C3    C36   A    
C17   C19   A    
C18   C20   A    
C23   C25   A    
C9    C31   S    
C13   H25   S    
C16   C18   A    
C21   C24   A    
C27   C28   S    
C17   C32   S    
C15   H27   S    
C36   H7    S    
C25   C33   A    
C10   O6    A    
