data_str_m3_o10_o15_f0_pcu.sym.76
_audit_creation_date              2012-12-10T16:51:00-0500
_audit_creation_method            fapswitch 2.2
_symmetry_space_group_name_H-M    P1
_symmetry_Int_Tables_number       1
_space_group_crystal_system       triclinic
_cell_length_a                    7.750637
_cell_length_b                    8.606117
_cell_length_c                    10.931418
_cell_angle_alpha                 91.474544
_cell_angle_beta                  85.52275
_cell_angle_gamma                 93.435311
_cell_volume                      725.463407831

loop_
_atom_site_label
_atom_site_type_symbol
_atom_type_description
_atom_site_fract_x
_atom_site_fract_y
_atom_site_fract_z
_atom_type_partial_charge
C1    C     C_R   0.544959 0.794308 0.494741 0.890071
C2    C     C_R   0.954386 0.400087 0.052482 0.433335
C3    C     C_R   0.028906 0.554387 0.072011 -0.221596
C4    C     C_R   0.971098 0.445619 0.927989 -0.221598
C5    C     C_R   0.182146 0.567352 0.134265 -0.152256
C6    C     C_R   0.817858 0.432654 0.865735 -0.152259
C7    C     C_R   0.344409 0.534466 0.071251 0.071700
C8    C     C_R   0.655594 0.465540 0.928749 0.071703
C9    C     C_R   0.356952 0.552661 0.944557 -0.073340
C10   C     C_R   0.643051 0.447344 0.055442 -0.073339
C11   C     C_R   0.491833 0.488811 0.127652 -0.155617
C12   C     C_R   0.455041 0.205692 0.505259 0.890073
C13   C     C_R   0.508170 0.511193 0.872347 -0.155617
C14   C     C_2   0.563591 0.956002 0.474878 0.187008
C15   C     C_2   0.436408 0.043997 0.525122 0.187007
C16   C     C_R   0.503376 0.505202 0.739864 0.879248
C17   C     C_R   0.496624 0.494799 0.260136 0.879248
C18   C     C_R   0.217539 0.623722 0.895752 -0.091101
C19   C     C_R   0.782464 0.376284 0.104248 -0.091100
C20   C     C_R   0.045618 0.599920 0.947518 0.433335
H1    H     H_    0.060001 0.374028 0.871778 0.135154
H2    H     H_    0.159889 0.274004 0.031065 0.341974
H3    H     H_    0.767842 0.931274 0.359579 0.347567
H4    H     H_    0.232158 0.068726 0.640421 0.347568
H5    H     H_    0.940003 0.625978 0.128222 0.135153
H6    H     H_    0.241848 0.702640 0.819764 0.211922
H7    H     H_    0.758155 0.297364 0.180234 0.211922
H8    H     H_    0.169162 0.619091 0.224905 0.185000
H9    H     H_    0.830844 0.380919 0.775093 0.185002
H10   H     H_    0.014915 0.384208 0.405440 0.220408
H11   H     H_    0.985085 0.615792 0.594560 0.220407
H12   H     H_    0.840114 0.726002 0.968934 0.341974
N1    N     N_2   0.950330 0.457950 0.466250 -0.180536
N2    N     N_2   0.049670 0.542050 0.533750 -0.180537
O1    O     O_R   0.389250 0.738570 0.508280 -0.561451
O2    O     O_3   0.049948 0.277129 0.083831 -0.752033
O3    O     O_3   0.697316 0.016472 0.394440 -0.771836
O4    O     O_3   0.302684 0.983528 0.605560 -0.771836
O5    O     O_R   0.610750 0.261430 0.491720 -0.561450
O6    O     O_R   0.678390 0.711630 0.486650 -0.642223
O7    O     O_R   0.321610 0.288370 0.513350 -0.642223
O8    O     O_R   0.355430 0.513480 0.694040 -0.636659
O9    O     O_R   0.644570 0.486520 0.305960 -0.636659
O10   O     O_R   0.644570 0.486540 0.672410 -0.639610
O11   O     O_R   0.355430 0.513460 0.327590 -0.639608
O12   O     O_3   0.950056 0.722878 0.916169 -0.752033
Zn1   Zn    Zn3+2 0.306940 0.517990 0.514440 0.974865
Zn2   Zn    Zn3+2 0.693060 0.482010 0.485560 0.974865

loop_
_geom_bond_atom_site_label_1
_geom_bond_atom_site_label_2
_ccdc_geom_bond_type
C2    C4    A    
C17   O9    A    
C15   O4    S    
C8    C13   A    
N2    Zn1   S    
C5    H8    S    
C19   H7    S    
O9    Zn2   S    
C16   O10   A    
H4    O4    S    
C18   H6    S    
C12   C15   S    
C10   C19   A    
O1    Zn1   S    
C1    O6    A    
C12   O5    A    
C2    C3    A    
O7    Zn1   S    
H11   N2    S    
C5    C7    A    
C3    C20   A    
H3    O3    S    
C14   O3    S    
C7    C11   A    
C4    H1    S    
C12   O7    A    
C4    C6    A    
C17   O11   A    
N1    N2    D    
C18   C20   A    
O8    Zn1   S    
O11   Zn1   S    
C10   C11   A    
C4    C20   A    
C16   O8    A    
C9    C18   A    
C3    H5    S    
C6    H9    S    
H2    O2    S    
C1    O1    A    
C8    C10   A    
C13   C16   S    
C2    O2    S    
C7    C9    A    
N1    Zn2   S    
C9    C13   A    
O6    Zn2   S    
C11   C17   S    
C6    C8    A    
C1    C14   S    
H10   N1    S    
C2    C19   A    
C14   C15   D    
H12   O12   S    
C20   O12   S    
O10   Zn2   S    
O5    Zn2   S    
C3    C5    A    
