data_str_m9_o16_o22_f0_sra.sym.38
_audit_creation_date              2012-12-11T15:11:45-0500
_audit_creation_method            fapswitch 2.2
_symmetry_space_group_name_H-M    P1
_symmetry_Int_Tables_number       1
_space_group_crystal_system       triclinic
_cell_length_a                    19.42826
_cell_length_b                    7.148133
_cell_length_c                    14.800315
_cell_angle_alpha                 90.589796
_cell_angle_beta                  102.768339
_cell_angle_gamma                 89.523227
_cell_volume                      2004.43383222

loop_
_atom_site_label
_atom_site_type_symbol
_atom_type_description
_atom_site_fract_x
_atom_site_fract_y
_atom_site_fract_z
_atom_type_partial_charge
O1    O     O_R   0.449830 0.506740 0.599960 -0.535607
O2    O     O_R   0.550170 0.006740 0.400040 -0.544420
O3    O     O_R   0.588980 0.179860 0.596720 -0.550734
O4    O     O_R   0.411020 0.679860 0.403280 -0.551157
C1    C     C_R   0.615258 0.344795 0.621199 0.670949
C2    C     C_R   0.384918 0.844657 0.378560 0.675442
O5    O     O_R   0.452740 0.177340 0.612040 -0.547927
O6    O     O_R   0.547260 0.677340 0.387960 -0.543787
O7    O     O_R   0.412960 0.002070 0.415460 -0.537913
O8    O     O_R   0.587040 0.502070 0.584540 -0.537815
C3    C     C_R   0.440286 0.347377 0.639950 0.674638
C4    C     C_R   0.558670 0.844941 0.358942 0.680359
O9    O     O_3   0.487110 0.337570 0.435490 -0.379285
O10   O     O_3   0.512890 0.837570 0.564510 -0.377113
V1    V     V_3+5 0.502390 0.064650 0.511970 1.399860
V2    V     V_3+5 0.497610 0.564650 0.488030 1.407512
C5    C     C_R   0.598683 0.713228 0.128845 -0.160799
C6    C     C_R   0.410420 0.415909 0.881692 -0.156734
H1    H     H_    0.508338 0.685780 0.188874 0.109111
H2    H     H_    0.501076 0.428439 0.820306 0.099282
H3    H     H_    0.677266 0.712957 0.004490 0.121564
H4    H     H_    0.332446 0.405650 0.007520 0.123292
H5    H     H_    0.572811 0.646475 0.064317 0.111463
H6    H     H_    0.441219 0.440886 0.951209 0.112370
C7    C     C_R   0.591608 0.842195 0.278357 -0.054621
C8    C     C_R   0.406139 0.359648 0.718846 -0.028737
C9    C     C_R   0.928116 0.890140 0.291405 -0.246988
C10   C     C_R   0.075317 0.384218 0.710081 -0.232446
C11   C     C_R   0.894036 0.890020 0.363821 0.141760
C12   C     C_R   0.110658 0.445557 0.644264 0.130712
C13   C     C_R   0.819669 0.879686 0.344972 0.415299
C14   C     C_R   0.185557 0.451343 0.667349 0.412968
C15   C     C_R   0.779257 0.863295 0.252072 -0.084689
C16   C     C_R   0.222855 0.387127 0.754564 -0.068021
C17   C     C_R   0.815778 0.849874 0.178755 -0.007750
C18   C     C_R   0.186637 0.367595 0.826784 -0.003387
C19   C     C_R   0.703834 0.845886 0.230005 0.100712
C20   C     C_R   0.297415 0.371951 0.774185 0.115376
C21   C     C_R   0.669768 0.767372 0.144183 0.098791
C22   C     C_R   0.336632 0.395928 0.864996 0.095060
C23   C     C_R   0.705626 0.755859 0.073119 -0.202160
C24   C     C_R   0.301571 0.394901 0.937121 -0.199903
C25   C     C_R   0.775452 0.817082 0.087033 0.128364
C26   C     C_R   0.227958 0.368478 0.919778 0.118408
C27   C     C_R   0.660084 0.907751 0.288385 -0.161962
C28   C     C_R   0.333705 0.328399 0.705013 -0.130933
C29   C     C_R   0.561256 0.740157 0.198388 -0.160137
C30   C     C_R   0.444640 0.406427 0.807743 -0.169050
C31   C     C_R   0.890757 0.867858 0.200806 -0.091617
C32   C     C_R   0.111280 0.359584 0.801488 -0.090623
H7    H     H_    0.676521 0.013411 0.338744 0.146850
H8    H     H_    0.304827 0.266090 0.641620 0.111417
H9    H     H_    0.985233 0.902135 0.305813 0.120184
H10   H     H_    0.017999 0.380652 0.693371 0.115265
C33   C     C_3   0.219156 0.653090 0.196109 0.295017
C34   C     C_3   0.782192 0.153439 0.800754 0.300807
H11   H     H_    0.224320 0.624656 0.124607 0.112802
H12   H     H_    0.777567 0.121766 0.871640 0.112216
C35   C     C_3   0.296157 0.652512 0.256724 -0.058862
C36   C     C_3   0.705033 0.152781 0.740446 -0.063121
H13   H     H_    0.300174 0.541072 0.307245 0.158390
H14   H     H_    0.701220 0.044437 0.687062 0.159882
H15   H     H_    0.135738 0.900568 0.307445 0.087239
H16   H     H_    0.864788 0.406731 0.695202 0.087191
H17   H     H_    0.241728 0.787249 0.395526 0.135813
H18   H     H_    0.761232 0.287008 0.606040 0.139797
C37   C     C_3   0.182752 0.942282 0.281931 -0.354800
C38   C     C_3   0.816920 0.446965 0.720046 -0.345982
C39   C     C_3   0.242855 0.981969 0.154627 -0.416890
C40   C     C_3   0.756098 0.480227 0.847809 -0.413486
C41   C     C_3   0.187337 0.856543 0.186921 -0.036622
C42   C     C_3   0.812698 0.357690 0.813487 -0.033251
H19   H     H_    0.221016 0.124399 0.146794 0.200464
H20   H     H_    0.776278 0.623611 0.860113 0.192175
H21   H     H_    0.252169 0.933613 0.086627 0.143703
H22   H     H_    0.746547 0.426916 0.914286 0.139402
C43   C     C_3   0.314180 0.849724 0.306717 0.074576
C44   C     C_3   0.686123 0.349986 0.693191 0.078679
C45   C     C_3   0.251985 0.904766 0.354718 -0.032116
C46   C     C_3   0.748571 0.405363 0.646300 -0.067195
C47   C     C_3   0.314011 0.993184 0.228479 -0.312286
C48   C     C_3   0.685267 0.492231 0.773267 -0.315196
H23   H     H_    0.359232 0.968783 0.195127 0.139863
H24   H     H_    0.639840 0.467304 0.805744 0.132361
H25   H     H_    0.321057 0.137131 0.257906 0.163995
H26   H     H_    0.677873 0.636470 0.745581 0.161935
H27   H     H_    0.176211 0.094801 0.272551 0.215984
H28   H     H_    0.821761 0.600284 0.730954 0.218296
O11   O     O_R   0.912980 0.203550 0.915410 -0.530947
O12   O     O_R   0.087020 0.703550 0.084590 -0.533303
O13   O     O_R   0.047270 0.535570 0.887960 -0.548523
O14   O     O_R   0.952730 0.035570 0.112040 -0.551194
C49   C     C_R   0.066782 0.367228 0.867933 0.715100
C50   C     C_R   0.933544 0.869603 0.132445 0.720903
O15   O     O_R   0.911030 0.532970 0.903270 -0.548494
O16   O     O_R   0.088970 0.032970 0.096730 -0.546450
O17   O     O_R   0.949820 0.708150 0.099970 -0.546649
O18   O     O_R   0.050180 0.208150 0.900030 -0.547576
C51   C     C_R   0.883564 0.364996 0.883263 0.647378
C52   C     C_R   0.116357 0.864675 0.117117 0.648708
O19   O     O_3   0.012900 0.375230 0.064480 -0.376643
O20   O     O_3   0.987100 0.875230 0.935520 -0.376066
V3    V     V_3+5 0.997610 0.648190 0.988040 1.417000
V4    V     V_3+5 0.002390 0.148190 0.011960 1.415250
C53   C     C_3   0.349949 0.589273 0.199047 -0.856895
H29   H     H_    0.341249 0.439914 0.178897 0.206648
H30   H     H_    0.344595 0.671536 0.134668 0.212092
H31   H     H_    0.404945 0.601256 0.239375 0.228823
C54   C     C_3   0.651819 0.088499 0.798078 -0.832006
H32   H     H_    0.660636 0.938318 0.815380 0.205629
H33   H     H_    0.658104 0.167807 0.864222 0.210208
H34   H     H_    0.596327 0.104374 0.759655 0.233075
C55   C     C_3   0.267039 0.066672 0.424499 -0.791727
H35   H     H_    0.308261 0.028099 0.486280 0.213051
H36   H     H_    0.283385 0.191510 0.391343 0.228833
H37   H     H_    0.218650 0.098646 0.449760 0.202378
C56   C     C_3   0.731594 0.564243 0.576664 -0.750633
H38   H     H_    0.694585 0.516658 0.512356 0.212718
H39   H     H_    0.707441 0.681311 0.608037 0.224935
H40   H     H_    0.780234 0.611461 0.556313 0.245547
O21   O     O_3   0.788079 0.849119 0.417506 -0.560173
C57   C     C_3   0.781625 0.020113 0.462836 0.046328
H41   H     H_    0.771069 0.143167 0.415666 0.105506
H42   H     H_    0.830527 0.051291 0.513968 0.137370
C58   C     C_3   0.721710 0.997416 0.511628 -0.748161
H43   H     H_    0.685700 0.883111 0.481002 0.244502
H44   H     H_    0.746183 0.957599 0.582717 0.200532
H45   H     H_    0.689072 0.126029 0.506727 0.185097
O22   O     O_3   0.222918 0.564566 0.620244 -0.548954
C59   C     C_3   0.213986 0.508492 0.527696 0.063189
H46   H     H_    0.178387 0.611899 0.486110 0.138816
H47   H     H_    0.192013 0.365540 0.512444 0.103399
C60   C     C_3   0.283940 0.515490 0.499619 -0.675119
H48   H     H_    0.319032 0.397218 0.523592 0.193735
H49   H     H_    0.271092 0.496993 0.425327 0.143113
H50   H     H_    0.311717 0.649278 0.521026 0.232082
C61   C     C_3   0.938691 0.892157 0.460979 -0.779805
H51   H     H_    0.994612 0.858847 0.461547 0.201258
H52   H     H_    0.938183 0.033648 0.492190 0.193983
H53   H     H_    0.919670 0.786050 0.503714 0.228048
C62   C     C_3   0.066727 0.522934 0.555496 -0.800923
H54   H     H_    0.009509 0.524117 0.555252 0.209595
H55   H     H_    0.082199 0.669638 0.547378 0.218252
H56   H     H_    0.073160 0.435921 0.495499 0.193889
C63   C     C_3   0.801530 0.860903 0.002012 -0.751800
H57   H     H_    0.756967 0.866951 0.941006 0.188049
H58   H     H_    0.826131 0.001061 0.009634 0.200512
H59   H     H_    0.838958 0.752637 0.988988 0.224673
C64   C     C_3   0.197188 0.343536 0.002538 -0.740470
H60   H     H_    0.239140 0.348521 0.066213 0.189856
H61   H     H_    0.159878 0.457991 0.008256 0.218254
H62   H     H_    0.171374 0.205386 0.998309 0.212082
O23   O     O_3   0.177544 0.499044 0.216114 -0.561129
C65   C     C_3   0.129920 0.542282 0.273493 0.150475
H63   H     H_    0.088212 0.641064 0.240527 0.135364
H64   H     H_    0.158236 0.598230 0.339761 0.084951
C66   C     C_3   0.090895 0.369930 0.294293 -0.740017
H65   H     H_    0.074927 0.280388 0.231754 0.261791
H66   H     H_    0.124145 0.290136 0.351736 0.179817
H67   H     H_    0.042456 0.413445 0.317409 0.179375
O24   O     O_3   0.824253 0.000379 0.778386 -0.560319
C67   C     C_3   0.873782 0.044357 0.724580 0.142624
H68   H     H_    0.915814 0.138062 0.761240 0.136572
H69   H     H_    0.847900 0.107553 0.659124 0.087668
C68   C     C_3   0.911124 0.868582 0.701199 -0.735331
H70   H     H_    0.875363 0.787082 0.646549 0.198599
H71   H     H_    0.957966 0.907715 0.674183 0.183210
H72   H     H_    0.929126 0.781404 0.763591 0.256993

loop_
_geom_bond_atom_site_label_1
_geom_bond_atom_site_label_2
_ccdc_geom_bond_type
C38   C46   S    
C20   C22   A    
C68   H70   S    
H17   C45   S    
C33   C35   S    
C9    C11   A    
C33   H11   S    
C53   H29   S    
O1    C3    A    
O2    C4    A    
C35   C43   S    
C2    O7    A    
O24   C67   S    
O3    V1    S    
C21   C23   A    
H4    C24   S    
O5    C3    A    
C61   H52   S    
C36   C44   S    
C66   H65   S    
C12   C62   S    
O11   C51   A    
C6    H6    S    
H16   C38   S    
C67   H68   S    
C64   H61   S    
O15   C51   A    
C64   H60   S    
C27   H7    S    
C28   H8    S    
C36   H14   S    
C5    C21   A    
C39   C41   S    
C6    C22   A    
C36   C54   S    
C54   H33   S    
C47   H23   S    
C55   H35   S    
C10   C32   A    
C34   C42   S    
C17   C31   A    
C58   H45   S    
C13   C15   A    
C39   H19   S    
C31   C50   S    
C17   C25   A    
C7    C29   A    
C65   H64   S    
C8    C30   A    
C55   H37   S    
O6    V2    S    
C22   C24   A    
C68   H71   S    
C11   C13   A    
C23   C25   A    
C24   C26   A    
C11   C61   S    
O12   C52   A    
C14   O22   S    
C63   H58   S    
O15   V3    S    
C63   H57   S    
C67   H69   S    
C43   C45   S    
C61   H53   S    
H15   C37   S    
O17   V3    S    
C35   H13   S    
C37   C45   S    
C13   O21   S    
C65   C66   S    
O4    C2    A    
C56   H40   S    
C56   H39   S    
C2    C43   S    
C3    C8    S    
C48   H26   S    
C34   O24   S    
C15   C19   A    
C34   C36   S    
C38   C42   S    
C62   H55   S    
C14   C16   A    
O4    V2    S    
C59   H47   S    
C40   H20   S    
C25   C63   S    
O13   C49   A    
C67   C68   S    
C53   H30   S    
C44   C48   S    
O14   V4    S    
C43   C47   S    
O6    C4    A    
O14   C50   A    
C65   H63   S    
C44   C46   S    
H1    C29   S    
C35   C53   S    
O1    V2    S    
C5    H5    S    
C53   H31   S    
O20   V4    S    
O2    V1    S    
O21   C57   S    
H2    C30   S    
C60   H50   S    
H3    C23   S    
C64   H62   S    
C68   H72   S    
C54   H34   S    
C45   C55   S    
O11   V4    S    
C40   H22   S    
C58   H43   S    
C38   H28   S    
C18   C26   A    
C59   C60   S    
C19   C27   A    
C7    C27   A    
C63   H59   S    
C18   C32   A    
C58   H44   S    
O22   C59   S    
C41   C52   S    
C33   O23   S    
O16   V4    S    
C46   C56   S    
C10   H10   S    
C16   C20   A    
C37   H27   S    
C5    C29   A    
O13   V3    S    
O3    C1    A    
C6    C30   A    
C9    H9    S    
C32   C49   S    
C57   H41   S    
C62   H56   S    
C66   H67   S    
H18   C46   S    
C61   H51   S    
C48   H24   S    
C26   C64   S    
C50   O17   A    
O19   V3    S    
C4    C7    S    
C57   C58   S    
C10   C12   A    
C59   H46   S    
O7    V1    S    
C1    O8    A    
C19   C21   A    
O8    V2    S    
C56   H38   S    
C12   C14   A    
C60   H48   S    
O18   V4    S    
O16   C52   A    
O5    V1    S    
C15   C17   A    
C16   C18   A    
C34   H12   S    
C39   H21   S    
C37   C41   S    
O20   V3    S    
C40   C48   S    
C47   H25   S    
O12   V3    S    
C20   C28   A    
C39   C47   S    
C8    C28   A    
C1    C44   S    
C66   H66   S    
O9    V2    S    
C54   H32   S    
C60   H49   S    
O10   V1    S    
C40   C42   S    
O19   V4    S    
O23   C65   S    
C62   H54   S    
C57   H42   S    
C49   O18   A    
C33   C41   S    
C9    C31   A    
C55   H36   S    
C42   C51   S    
