data_str_m12_o4_o10_f0_bcu.sym.96
_audit_creation_date              2013-03-05T15:53:05-0500
_audit_creation_method            fapswitch 2.2
_symmetry_space_group_name_H-M    P1
_symmetry_Int_Tables_number       1
_space_group_crystal_system       triclinic
_cell_length_a                    19.875607
_cell_length_b                    16.97133
_cell_length_c                    15.563831
_cell_angle_alpha                 90.0
_cell_angle_beta                  52.90879
_cell_angle_gamma                 90.00002
_cell_volume                      4187.73856552

loop_
_atom_site_label
_atom_site_type_symbol
_atom_site_description
_atom_site_fract_x
_atom_site_fract_y
_atom_site_fract_z
_atom_type_partial_charge
C1    C     C_R   0.875852 0.695566 0.993375 -0.159673
C2    C     C_R   0.124461 0.695511 0.005954 -0.158057
C3    C     C_R   0.375539 0.195511 0.994046 -0.158054
C4    C     C_R   0.624148 0.195566 0.006625 -0.159662
H1    H     H_    0.884787 0.751234 0.018865 0.127933
H2    H     H_    0.115685 0.751048 0.980031 0.126989
H3    H     H_    0.384315 0.251048 0.019969 0.126988
H4    H     H_    0.615214 0.251234 0.981134 0.127929
N1    N     N_R   0.908660 0.628630 0.995840 -0.062167
N2    N     N_R   0.091340 0.628630 0.004160 -0.061423
N3    N     N_R   0.408660 0.128630 0.995840 -0.061423
N4    N     N_R   0.591340 0.128630 0.004160 -0.062168
C5    C     C_R   0.911878 0.300959 0.205842 0.255067
C6    C     C_R   0.086075 0.299982 0.797555 0.247551
C7    C     C_R   0.413925 0.799982 0.202445 0.247547
C8    C     C_R   0.588123 0.800958 0.794158 0.255055
N5    N     N_R   0.922310 0.368460 0.151950 -0.077107
N6    N     N_R   0.077690 0.368460 0.848050 -0.077956
N7    N     N_R   0.422310 0.868460 0.151950 -0.077956
N8    N     N_R   0.577690 0.868460 0.848050 -0.077105
C9    C     C_R   0.829389 0.413102 0.952491 -0.161136
C10   C     C_R   0.170379 0.413233 0.048068 -0.170813
C11   C     C_R   0.329621 0.913232 0.951932 -0.170814
C12   C     C_R   0.670610 0.913101 0.047511 -0.161137
H5    H     H_    0.808955 0.446497 0.913266 0.172536
H6    H     H_    0.190430 0.446631 0.087749 0.172725
H7    H     H_    0.309571 0.946631 0.912250 0.172724
H8    H     H_    0.691043 0.946496 0.086738 0.172538
N9    N     N_R   0.903470 0.421430 0.936420 -0.072508
N10   N     N_R   0.096530 0.421430 0.063580 -0.073931
N11   N     N_R   0.403470 0.921430 0.936420 -0.073931
N12   N     N_R   0.596530 0.921430 0.063580 -0.072508
C13   C     C_R   0.858268 0.578283 0.312195 -0.018558
C14   C     C_R   0.138793 0.581598 0.686548 -0.023322
C15   C     C_R   0.361207 0.081599 0.313452 -0.023322
C16   C     C_R   0.641733 0.078282 0.687805 -0.018558
H9    H     H_    0.843245 0.536727 0.373320 0.111468
H10   H     H_    0.152876 0.541263 0.624934 0.099557
H11   H     H_    0.347125 0.041263 0.375066 0.099557
H12   H     H_    0.656756 0.036726 0.626680 0.111468
N13   N     N_R   0.927500 0.575670 0.211370 -0.050133
N14   N     N_R   0.072500 0.575670 0.788630 -0.051238
N15   N     N_R   0.427500 0.075670 0.211370 -0.051238
N16   N     N_R   0.572500 0.075670 0.788630 -0.050132
C17   C     C_R   0.835810 0.325662 0.052725 0.374954
C18   C     C_R   0.164360 0.325956 0.947545 0.382231
C19   C     C_R   0.335639 0.825956 0.052455 0.382232
C20   C     C_R   0.664189 0.825661 0.947277 0.374956
N17   N     N_R   0.908660 0.365680 0.995820 -0.110948
N18   N     N_R   0.091340 0.365680 0.004180 -0.110740
N19   N     N_R   0.408660 0.865680 0.995820 -0.110740
N20   N     N_R   0.591340 0.865680 0.004180 -0.110950
C21   C     C_R   0.851712 0.672898 0.218002 -0.084825
C22   C     C_R   0.146248 0.675669 0.780726 -0.091478
C23   C     C_R   0.353752 0.175669 0.219274 -0.091480
C24   C     C_R   0.648288 0.172898 0.781998 -0.084825
H13   H     H_    0.832333 0.722207 0.194023 0.109922
H14   H     H_    0.165966 0.725377 0.803806 0.110966
H15   H     H_    0.334035 0.225377 0.196194 0.110966
H16   H     H_    0.667667 0.222207 0.805977 0.109922
N21   N     N_R   0.922310 0.631420 0.151980 -0.051317
N22   N     N_R   0.077690 0.631420 0.848020 -0.051248
N23   N     N_R   0.422310 0.131420 0.151980 -0.051248
N24   N     N_R   0.577690 0.131420 0.848020 -0.051318
C25   C     C_R   0.908041 0.396894 0.302518 -0.137477
C26   C     C_R   0.094837 0.395266 0.695819 -0.113196
C27   C     C_R   0.405163 0.895266 0.304181 -0.113195
C28   C     C_R   0.591958 0.896893 0.697482 -0.137477
H17   H     H_    0.927114 0.426889 0.344773 0.172428
H18   H     H_    0.092475 0.427805 0.638811 0.160368
H19   H     H_    0.407524 0.927805 0.361189 0.160368
H20   H     H_    0.572885 0.926888 0.655228 0.172427
N25   N     N_R   0.927500 0.426330 0.211360 -0.070278
N26   N     N_R   0.072500 0.426330 0.788640 -0.068826
N27   N     N_R   0.427500 0.926330 0.211360 -0.068826
N28   N     N_R   0.572500 0.926330 0.788640 -0.070277
C29   C     C_R   0.870461 0.607044 0.892303 0.210466
C30   C     C_R   0.129367 0.607309 0.107790 0.213868
C31   C     C_R   0.370633 0.107309 0.892209 0.213867
C32   C     C_R   0.629539 0.107043 0.107697 0.210459
N29   N     N_R   0.903470 0.570760 0.936440 -0.077424
N30   N     N_R   0.096530 0.570760 0.063560 -0.077136
N31   N     N_R   0.403470 0.070760 0.936440 -0.077135
N32   N     N_R   0.596530 0.070760 0.063560 -0.077422
C33   C     C_R   0.851636 0.684667 0.928798 0.038735
C34   C     C_R   0.148413 0.684885 0.070832 0.039974
C35   C     C_R   0.351587 0.184885 0.929168 0.039971
C36   C     C_R   0.648363 0.184667 0.071203 0.038724
C37   C     C_R   0.891001 0.318270 0.306941 0.009582
C38   C     C_R   0.104719 0.314990 0.697954 -0.000783
C39   C     C_R   0.395281 0.814990 0.302046 -0.000781
C40   C     C_R   0.608999 0.818270 0.693059 0.009589
C41   C     C_R   0.784585 0.353267 0.026794 0.011390
C42   C     C_R   0.215359 0.353525 0.973842 0.016612
C43   C     C_R   0.284641 0.853526 0.026157 0.016614
C44   C     C_R   0.715414 0.853266 0.973209 0.011397
C45   C     C_R   0.809627 0.639871 0.319814 0.067487
C46   C     C_R   0.186259 0.644727 0.678110 0.071646
C47   C     C_R   0.313742 0.144727 0.321890 0.071646
C48   C     C_R   0.690374 0.139871 0.680186 0.067488
Ni1   Ni    Ni4+2 1.000000 0.630300 0.000000 0.233235
Ni2   Ni    Ni4+2 0.500000 0.130300 0.000000 0.233236
Ni3   Ni    Ni4+2 1.000000 0.369700 0.000000 0.293404
Ni4   Ni    Ni4+2 0.500000 0.869700 0.000000 0.293401
Ni5   Ni    Ni4+2 0.988090 0.497570 0.863760 0.259843
Ni6   Ni    Ni4+2 0.011910 0.497570 0.136240 0.255731
Ni7   Ni    Ni4+2 0.488090 0.997570 0.863760 0.255731
Ni8   Ni    Ni4+2 0.511910 0.997570 0.136240 0.259843
C49   C     C_R   0.709132 0.642306 0.518036 -0.016329
C50   C     C_R   0.284219 0.644462 0.480245 -0.028424
C51   C     C_R   0.215781 0.144462 0.519755 -0.028424
C52   C     C_R   0.790869 0.142306 0.481964 -0.016329
C53   C     C_R   0.732861 0.668602 0.419059 0.065044
C54   C     C_R   0.262173 0.673239 0.577566 0.075933
C55   C     C_R   0.237827 0.173240 0.422434 0.075933
C56   C     C_R   0.767140 0.168601 0.580942 0.065045
C57   C     C_R   0.187417 0.232782 0.426056 -0.199210
C58   C     C_R   0.808715 0.234104 0.582141 -0.190846
C59   C     C_R   0.691286 0.734104 0.417859 -0.190845
C60   C     C_R   0.312583 0.732781 0.573943 -0.199209
H21   H     H_    0.196527 0.251409 0.353190 0.152440
H22   H     H_    0.794950 0.253438 0.657437 0.152469
H23   H     H_    0.705051 0.753438 0.342563 0.152469
H24   H     H_    0.303474 0.751409 0.646809 0.152439
C61   C     C_R   0.129730 0.273588 0.522725 0.216686
C62   C     C_R   0.852243 0.284996 0.493570 0.238294
C63   C     C_R   0.647757 0.784996 0.506431 0.238292
C64   C     C_R   0.370270 0.773588 0.477274 0.216686
C65   C     C_R   0.123798 0.254796 0.616502 -0.003068
C66   C     C_R   0.869082 0.261482 0.393222 -0.016701
C67   C     C_R   0.630917 0.761481 0.606778 -0.016701
C68   C     C_R   0.376202 0.754796 0.383498 -0.003068
C69   C     C_R   0.651947 0.682572 0.612578 0.034653
C70   C     C_R   0.344715 0.679940 0.383457 0.037886
C71   C     C_R   0.155285 0.179940 0.616543 0.037885
C72   C     C_R   0.848053 0.182572 0.387422 0.034651
C73   C     C_3   0.692555 0.646361 0.660899 0.103728
C74   C     C_3   0.302475 0.646908 0.336118 0.105646
C75   C     C_3   0.197524 0.146908 0.663882 0.105647
C76   C     C_3   0.807443 0.146362 0.339102 0.103734
C77   C     C_3   0.759164 0.610825 0.553102 -0.002711
C78   C     C_3   0.233429 0.614535 0.445438 -0.001888
C79   C     C_3   0.266571 0.114535 0.554562 -0.001889
C80   C     C_3   0.740836 0.110826 0.446899 -0.002715
H25   H     H_    0.716735 0.689431 0.689295 0.194817
H26   H     H_    0.281295 0.691680 0.306323 0.197039
H27   H     H_    0.218705 0.191680 0.693678 0.197040
H28   H     H_    0.783263 0.189433 0.310708 0.194817
H29   H     H_    0.762346 0.545451 0.553166 0.151209
H30   H     H_    0.227191 0.549234 0.447471 0.137429
H31   H     H_    0.272809 0.049234 0.552529 0.137429
H32   H     H_    0.737653 0.045452 0.446835 0.151210
C81   C     C_2   0.679487 0.246846 0.103156 -0.060476
C82   C     C_2   0.321086 0.247548 0.896977 -0.056398
C83   C     C_2   0.178914 0.747549 0.103022 -0.056398
C84   C     C_2   0.820514 0.746849 0.896846 -0.060475
H33   H     H_    0.686653 0.231264 0.163925 0.226297
H34   H     H_    0.315461 0.232981 0.834573 0.227285
H35   H     H_    0.184536 0.732984 0.165429 0.227286
H36   H     H_    0.813359 0.731276 0.836065 0.226299
C85   C     C_2   0.212167 0.813518 0.043607 -0.138793
C86   C     C_2   0.788204 0.813402 0.955083 -0.137935
C87   C     C_2   0.711789 0.313405 0.044929 -0.137913
C88   C     C_2   0.287834 0.313519 0.956390 -0.138787
H37   H     H_    0.200325 0.829104 0.986291 0.144934
H38   H     H_    0.801273 0.829810 0.010978 0.146643
H39   H     H_    0.698709 0.329821 0.989047 0.146642
H40   H     H_    0.299679 0.329107 0.013704 0.144934
I1    I     I_    0.057246 0.359328 0.513211 -0.300706
I2    I     I_    0.857117 0.398892 0.548075 -0.268165
I3    I     I_    0.642884 0.898892 0.451926 -0.268167
I4    I     I_    0.442755 0.859328 0.486788 -0.300706
N33   N     N_R   0.642965 0.582644 0.738066 0.273159
O1    O     O_R   0.590484 0.541582 0.732170 -0.332541
O2    O     O_R   0.664709 0.555945 0.796447 -0.271221
N34   N     N_R   0.348811 0.581390 0.260890 0.272560
O3    O     O_R   0.402088 0.539951 0.264799 -0.335749
O4    O     O_R   0.323633 0.554088 0.206541 -0.282809
N35   N     N_R   0.151188 0.081390 0.739110 0.272561
O5    O     O_R   0.097911 0.039951 0.735201 -0.335749
O6    O     O_R   0.176366 0.054087 0.793460 -0.282810
N36   N     N_R   0.857034 0.082646 0.261934 0.273162
O7    O     O_R   0.909515 0.041584 0.267829 -0.332540
O8    O     O_R   0.835287 0.055946 0.203557 -0.271222
N37   N     N_R   0.840957 0.649789 0.501890 0.257787
O9    O     O_R   0.849059 0.725576 0.485324 -0.332097
O10   O     O_R   0.905175 0.608995 0.479261 -0.291318
N38   N     N_R   0.153559 0.656577 0.494638 0.259751
O11   O     O_R   0.149010 0.732768 0.507061 -0.330790
O12   O     O_R   0.087194 0.617828 0.520807 -0.292869
N39   N     N_R   0.346441 0.156577 0.505363 0.259751
O13   O     O_R   0.350990 0.232768 0.492941 -0.330787
O14   O     O_R   0.412806 0.117828 0.479195 -0.292866
N40   N     N_R   0.659042 0.149789 0.498112 0.257786
O15   O     O_R   0.650940 0.225576 0.514681 -0.332098
O16   O     O_R   0.594824 0.108996 0.520740 -0.291316
I5    I     I_    0.996576 0.205973 0.121694 -0.184004
I6    I     I_    0.006236 0.202846 0.884865 -0.172115
I7    I     I_    0.493764 0.702846 0.115135 -0.172118
I8    I     I_    0.503425 0.705973 0.878307 -0.184011
N41   N     N_R   0.809898 0.274333 0.139583 0.187601
O17   O     O_R   0.827194 0.199693 0.120519 -0.369069
O18   O     O_R   0.750516 0.297721 0.237192 -0.414738
N42   N     N_R   0.190625 0.274597 0.860888 0.185639
O19   O     O_R   0.175611 0.199651 0.880052 -0.372238
O20   O     O_R   0.249752 0.298627 0.763522 -0.418298
N43   N     N_R   0.309374 0.774596 0.139111 0.185641
O21   O     O_R   0.324386 0.699650 0.119947 -0.372234
O22   O     O_R   0.250248 0.798626 0.236477 -0.418300
N44   N     N_R   0.690102 0.774329 0.860421 0.187607
O23   O     O_R   0.672815 0.699688 0.879486 -0.369055
O24   O     O_R   0.749479 0.797718 0.762811 -0.414746
I9    I     I_    0.886532 0.567043 0.751988 -0.146714
I10   I     I_    0.112419 0.567878 0.248867 -0.159695
I11   I     I_    0.387581 0.067878 0.751132 -0.159695
I12   I     I_    0.613465 0.067042 0.248014 -0.146722

loop_
_geom_bond_atom_site_label_1
_geom_bond_atom_site_label_2
_geom_bond_distance
_ccdc_geom_bond_type
C25   C37   1.368141 A    
N40   O16   1.300104 A    
C69   C73   1.525397 S    
C23   H15   1.078932 S    
C7    C39   1.382892 A    
C10   C42   1.383795 A    
N41   O17   1.299158 A    
C6    N6    1.355747 A    
C15   H11   1.069010 S    
C48   C56   1.452225 S    
C85   H37   1.083693 S    
N13   N21   1.369396 A    
C32   N32   1.350960 A    
C17   C41   1.383675 A    
C76   H28   1.103072 S    
C30   I10   2.119025 S    
C31   C35   1.394595 A    
N25   Ni6   1.810381 S    
N15   N23   1.369396 A    
N7    N27   1.394720 A    
C32   I12   2.119122 S    
N9    N17   1.369510 A    
N33   O1    1.302896 A    
C83   C85   1.344709 D    
C7    N7    1.355747 A    
C6    I6    2.116921 S    
N8    N28   1.394720 A    
C5    I5    2.118621 S    
C81   C87   1.344491 D    
C3    C35   1.363299 A    
C1    H1    1.080036 S    
C73   H25   1.103072 S    
C82   H34   1.071397 S    
C20   N20   1.339923 A    
C3    H3    1.080015 S    
C12   C44   1.385429 A    
C81   H33   1.071092 S    
C47   C55   1.453139 S    
N37   O10   1.300105 A    
C80   N40   1.467149 S    
C41   C87   1.462243 S    
C63   I3    2.136476 S    
C26   N26   1.337332 A    
C65   C71   1.416359 A    
C25   N25   1.322959 A    
N4    N32   1.394609 A    
N38   O12   1.300089 A    
C58   H22   1.081261 S    
C4    H4    1.080037 S    
C50   C78   1.493362 S    
C57   H21   1.082213 S    
N36   O7    1.302897 A    
N12   N20   1.369510 A    
C9    H5    1.076075 S    
C28   C40   1.368143 A    
C53   C59   1.391963 A    
C38   C65   1.488166 S    
C75   C79   1.504571 S    
C72   C76   1.525397 S    
N44   O23   1.299153 A    
C6    C38   1.382892 A    
N31   Ni7   1.832053 S    
C14   N14   1.321161 A    
C55   C57   1.400007 A    
C23   N23   1.340249 A    
C24   N24   1.334620 A    
C11   H7    1.076274 S    
C4    N4    1.321867 A    
C15   N15   1.321159 A    
N14   N22   1.369396 A    
C13   C45   1.379470 A    
C8    I8    2.118619 S    
C75   N35   1.467927 S    
C49   C53   1.385034 A    
N6    Ni3   1.890241 S    
N22   Ni1   1.890574 S    
C30   C34   1.394594 A    
C31   I11   2.119025 S    
N40   O15   1.302566 A    
N10   N18   1.369510 A    
C84   C86   1.344477 D    
N27   Ni8   1.810381 S    
N6    N26   1.394720 A    
C17   N41   1.418389 S    
C86   H38   1.083676 S    
N10   Ni6   1.866339 S    
N5    N25   1.394720 A    
N41   O18   1.302211 A    
N9    Ni5   1.866340 S    
C2    H2    1.080015 S    
C21   N21   1.334618 A    
C52   C72   1.380849 A    
N23   Ni2   1.890574 S    
C15   C47   1.380456 A    
C64   C68   1.427686 A    
C18   N18   1.339699 A    
C63   C67   1.442209 A    
N33   O2    1.300517 A    
C1    C33   1.363650 A    
N29   Ni5   1.832053 S    
N13   Ni6   1.890135 S    
C77   H29   1.111318 S    
N43   O21   1.299415 A    
C12   H8    1.076074 S    
C16   H12   1.071900 S    
C40   C67   1.488721 S    
C3    N3    1.320867 A    
C28   H20   1.065847 S    
C26   C38   1.379738 A    
C74   C78   1.504571 S    
C21   H13   1.077642 S    
C19   N19   1.339698 A    
C39   C68   1.488166 S    
C22   N22   1.340252 A    
N3    N31   1.394608 A    
N19   Ni4   1.856655 S    
C83   H35   1.071392 S    
N2    N30   1.394609 A    
C76   N36   1.468140 S    
C37   C66   1.488721 S    
N39   O13   1.302495 A    
N38   O11   1.302496 A    
C33   C84   1.454172 S    
C11   N11   1.343374 A    
N21   Ni1   1.890574 S    
C34   C83   1.454599 S    
N39   O14   1.300089 A    
N4    Ni2   1.855420 S    
C62   I2    2.136475 S    
C61   C65   1.427685 A    
C7    I7    2.116920 S    
N7    Ni4   1.890240 S    
C30   N30   1.351484 A    
C18   C42   1.383580 A    
C88   H40   1.083698 S    
C87   H39   1.083690 S    
C8    N8    1.359827 A    
C75   H27   1.097767 S    
C29   I9    2.119117 S    
C27   C39   1.379738 A    
C17   N17   1.339918 A    
C35   C82   1.454599 S    
C1    N1    1.321863 A    
C16   C48   1.379469 A    
C52   C80   1.492241 S    
N35   O5    1.302807 A    
C44   C86   1.462230 S    
C4    C36   1.363650 A    
C68   C70   1.416359 A    
N34   O3    1.302809 A    
N42   O20   1.302216 A    
N24   Ni2   1.890574 S    
C64   I4    2.114738 S    
N28   Ni7   1.810381 S    
C59   H23   1.081262 S    
C74   N34   1.467926 S    
C18   N42   1.414929 S    
C16   N16   1.324164 A    
C27   N27   1.337331 A    
C24   C48   1.387822 A    
C45   C53   1.452224 S    
N16   N24   1.369396 A    
C42   C88   1.462135 S    
C50   C54   1.387178 A    
C52   C56   1.385034 A    
C10   H6    1.076273 S    
C61   I1    2.114739 S    
C13   H9    1.071898 S    
C22   H14   1.078933 S    
N16   Ni7   1.890132 S    
C82   C88   1.344713 D    
C50   C70   1.375791 A    
C73   C77   1.500705 S    
N20   Ni4   1.856651 S    
C19   C43   1.383579 A    
C79   H31   1.113489 S    
C20   C44   1.383674 A    
C5    C37   1.395292 A    
C14   H10   1.069009 S    
N11   Ni7   1.866340 S    
N2    Ni1   1.855420 S    
C66   C72   1.421904 A    
C76   C80   1.500703 S    
C14   C46   1.380455 A    
N11   N19   1.369510 A    
C67   C69   1.421903 A    
N17   Ni3   1.856655 S    
C49   C77   1.492239 S    
C60   C64   1.406113 A    
C8    C40   1.395292 A    
C32   C36   1.393465 A    
N8    Ni4   1.890241 S    
C84   H36   1.071077 S    
C51   C79   1.493362 S    
C70   C74   1.519202 S    
C28   N28   1.322959 A    
C78   N38   1.466039 S    
C71   C75   1.519202 S    
N44   O24   1.302206 A    
C9    C41   1.385433 A    
C19   N43   1.414930 S    
C21   C45   1.387823 A    
C36   C81   1.454175 S    
C78   H30   1.113490 S    
C43   C85   1.462133 S    
C73   N33   1.468140 S    
C20   N44   1.418393 S    
C13   N13   1.324163 A    
C80   H32   1.111318 S    
C10   N10   1.343375 A    
N26   Ni5   1.810381 S    
C31   N31   1.351486 A    
C51   C71   1.375792 A    
N37   O9    1.302563 A    
C26   H18   1.069866 S    
C9    N9    1.343987 A    
C74   H26   1.097767 S    
C59   C63   1.398664 A    
C25   H17   1.065846 S    
N34   O4    1.300478 A    
N32   Ni8   1.832051 S    
C56   C58   1.391964 A    
C2    C34   1.363299 A    
N3    Ni2   1.855422 S    
C27   H19   1.069867 S    
N15   Ni8   1.890135 S    
N30   Ni6   1.832051 S    
C49   C69   1.380848 A    
N5    Ni3   1.890240 S    
N14   Ni5   1.890132 S    
N36   O8    1.300519 A    
C46   C54   1.453140 S    
C29   C33   1.393465 A    
C5    N5    1.359829 A    
C24   H16   1.077643 S    
N18   Ni3   1.856651 S    
C77   N37   1.467150 S    
N42   O19   1.299417 A    
N1    Ni1   1.855422 S    
C29   N29   1.350967 A    
N12   Ni8   1.866339 S    
C23   C47   1.388152 A    
N43   O22   1.302214 A    
C62   C66   1.442210 A    
C11   C43   1.383791 A    
C22   C46   1.388152 A    
C51   C55   1.387178 A    
C58   C62   1.398666 A    
C79   N39   1.466041 S    
C57   C61   1.406113 A    
C54   C60   1.400008 A    
C60   H24   1.082213 S    
N1    N29   1.394608 A    
N35   O6    1.300473 A    
C12   N12   1.343980 A    
C2    N2    1.320866 A    
