data_str_m4_o4_o15_f0_acs.sym.110
_audit_creation_date              2013-03-05T15:51:26-0500
_audit_creation_method            fapswitch 2.2
_symmetry_space_group_name_H-M    P1
_symmetry_Int_Tables_number       1
_space_group_crystal_system       triclinic
_cell_length_a                    19.147024
_cell_length_b                    11.031813
_cell_length_c                    18.634248
_cell_angle_alpha                 89.331965
_cell_angle_beta                  89.544178
_cell_angle_gamma                 90.00804
_cell_volume                      3935.6527128

loop_
_atom_site_label
_atom_site_type_symbol
_atom_site_description
_atom_site_fract_x
_atom_site_fract_y
_atom_site_fract_z
_atom_type_partial_charge
O1    O     O_R   0.957020 0.451640 0.669920 -0.519614
O2    O     O_R   0.042980 0.451640 0.330080 -0.519802
O3    O     O_R   0.457020 0.951640 0.669920 -0.526910
O4    O     O_R   0.542980 0.951640 0.330080 -0.518579
O5    O     O_R   0.821450 0.543440 0.674610 -0.499982
O6    O     O_R   0.178550 0.543440 0.325390 -0.501835
O7    O     O_R   0.321450 0.043440 0.674610 -0.505116
O8    O     O_R   0.678550 0.043440 0.325390 -0.506729
C1    C     C_R   0.760927 0.535018 0.647116 0.524226
C2    C     C_R   0.239820 0.535269 0.353164 0.520142
C3    C     C_R   0.260926 0.035021 0.647118 0.524501
C4    C     C_R   0.739820 0.035269 0.353164 0.513261
O9    O     O_R   0.715320 0.458650 0.668100 -0.532313
O10   O     O_R   0.284680 0.458650 0.331900 -0.540040
O11   O     O_R   0.215320 0.958650 0.668100 -0.528835
O12   O     O_R   0.784680 0.958650 0.331900 -0.545285
O13   O     O_R   0.737170 0.209590 0.674530 -0.499615
O14   O     O_R   0.262830 0.209590 0.325470 -0.510282
O15   O     O_R   0.237170 0.709590 0.674530 -0.500383
O16   O     O_R   0.762830 0.709590 0.325470 -0.510427
C5    C     C_R   0.791746 0.172171 0.638690 0.554279
C6    C     C_R   0.208190 0.170173 0.361072 0.553369
C7    C     C_R   0.291744 0.672165 0.638690 0.552172
C8    C     C_R   0.708189 0.670175 0.361071 0.554434
O17   O     O_R   0.832710 0.092740 0.669580 -0.510427
O18   O     O_R   0.167290 0.092740 0.330420 -0.507219
O19   O     O_R   0.332710 0.592740 0.669580 -0.514812
O20   O     O_R   0.667290 0.592740 0.330420 -0.510062
O21   O     O_R   0.946290 0.250060 0.676040 -0.520768
O22   O     O_R   0.053710 0.250060 0.323960 -0.526242
O23   O     O_R   0.446290 0.750060 0.676040 -0.522274
O24   O     O_R   0.553710 0.750060 0.323960 -0.530793
C9    C     C_R   0.970987 0.348037 0.646030 0.516036
C10   C     C_R   0.026138 0.343998 0.351424 0.509991
C11   C     C_R   0.470994 0.848037 0.646036 0.511194
C12   C     C_R   0.526144 0.843999 0.351430 0.509912
O25   O     O_R   0.956270 0.452200 0.830470 -0.474617
O26   O     O_R   0.043730 0.452200 0.169530 -0.438350
O27   O     O_R   0.456270 0.952200 0.830470 -0.438072
O28   O     O_R   0.543730 0.952200 0.169530 -0.472085
O29   O     O_R   0.820760 0.543950 0.823440 -0.448896
O30   O     O_R   0.179240 0.543950 0.176560 -0.436725
O31   O     O_R   0.320760 0.043950 0.823440 -0.434723
O32   O     O_R   0.679240 0.043950 0.176560 -0.406030
C13   C     C_R   0.757591 0.538181 0.848835 0.547674
C14   C     C_R   0.241774 0.536958 0.149587 0.560701
C15   C     C_R   0.257941 0.036782 0.850093 0.559821
C16   C     C_R   0.744169 0.042160 0.151977 0.630841
O33   O     O_R   0.714570 0.459210 0.828640 -0.493715
O34   O     O_R   0.285430 0.459210 0.171360 -0.527994
O35   O     O_R   0.214570 0.959210 0.828640 -0.523712
O36   O     O_R   0.785430 0.959210 0.171360 -0.518810
O37   O     O_R   0.736470 0.210100 0.823360 -0.426309
O38   O     O_R   0.263530 0.210100 0.176640 -0.450235
O39   O     O_R   0.236470 0.710100 0.823360 -0.445809
O40   O     O_R   0.763530 0.710100 0.176640 -0.494622
C17   C     C_R   0.791415 0.172590 0.860439 0.581078
C18   C     C_R   0.224447 0.134149 0.143500 0.574376
C19   C     C_R   0.274615 0.631214 0.855619 0.572789
C20   C     C_R   0.709835 0.670971 0.139234 0.638623
O41   O     O_R   0.831960 0.093290 0.830130 -0.489998
O42   O     O_R   0.168040 0.093290 0.169870 -0.485061
O43   O     O_R   0.331960 0.593290 0.830130 -0.481763
O44   O     O_R   0.668040 0.593290 0.169870 -0.471313
O45   O     O_R   0.945600 0.250580 0.824860 -0.497004
O46   O     O_R   0.054400 0.250580 0.175140 -0.511576
O47   O     O_R   0.445600 0.750580 0.824860 -0.508513
O48   O     O_R   0.554400 0.750580 0.175140 -0.458478
C21   C     C_R   0.967131 0.347365 0.854977 0.533534
C22   C     C_R   0.028083 0.346971 0.147889 0.560914
C23   C     C_R   0.469637 0.845797 0.853446 0.556447
C24   C     C_R   0.527558 0.847261 0.148218 0.554034
Cr1   Cr    Cr6+3 0.885860 0.491680 0.749630 1.076814
Cr2   Cr    Cr6+3 0.114140 0.491680 0.250370 1.083516
Cr3   Cr    Cr6+3 0.385860 0.991680 0.749630 1.085969
Cr4   Cr    Cr6+3 0.614140 0.991680 0.250370 1.086615
Cr5   Cr    Cr6+3 0.730490 0.332970 0.748720 1.051157
Cr6   Cr    Cr6+3 0.269510 0.332970 0.251280 1.037192
Cr7   Cr    Cr6+3 0.230490 0.832970 0.748720 1.052889
Cr8   Cr    Cr6+3 0.769510 0.832970 0.251280 1.024278
Cr9   Cr    Cr6+3 0.887570 0.179310 0.750150 1.050649
Cr10  Cr    Cr6+3 0.112430 0.179310 0.249850 1.044865
Cr11  Cr    Cr6+3 0.387570 0.679310 0.750150 1.050071
Cr12  Cr    Cr6+3 0.612430 0.679310 0.249850 1.057221
O49   O     O_3   0.834640 0.334650 0.749500 -0.317859
O50   O     O_3   0.165360 0.334650 0.250500 -0.288933
O51   O     O_3   0.334640 0.834650 0.749500 -0.294684
O52   O     O_3   0.665360 0.834650 0.250500 -0.300295
C25   C     C_R   0.759110 0.106771 0.415904 0.008140
C26   C     C_R   0.252843 0.079980 0.575657 0.037087
C27   C     C_R   0.259106 0.606767 0.415907 0.007165
C28   C     C_R   0.752842 0.579975 0.575656 0.037529
C29   C     C_R   0.710747 0.175522 0.454521 0.013891
C30   C     C_R   0.203464 0.168758 0.560309 0.009310
C31   C     C_R   0.210736 0.675499 0.454529 0.014024
C32   C     C_R   0.703457 0.668753 0.560311 0.008748
C33   C     C_R   0.722418 0.201571 0.526066 0.025580
C34   C     C_R   0.189345 0.198455 0.489618 0.011379
C35   C     C_R   0.222406 0.701541 0.526073 0.025573
C36   C     C_R   0.689337 0.698452 0.489620 0.011267
C37   C     C_R   0.837151 0.115057 0.518606 -0.167483
C38   C     C_R   0.265368 0.037873 0.449188 -0.127611
C39   C     C_R   0.337149 0.615065 0.518606 -0.167250
C40   C     C_R   0.765365 0.537869 0.449187 -0.127796
C41   C     C_R   0.825693 0.089112 0.446432 -0.160088
C42   C     C_R   0.281054 0.009883 0.520132 -0.127030
C43   C     C_R   0.325692 0.589122 0.446432 -0.160303
C44   C     C_R   0.781053 0.509877 0.520130 -0.126835
C45   C     C_3   0.634292 0.158631 0.466597 -0.257251
C46   C     C_3   0.203421 0.298706 0.581990 -0.277989
C47   C     C_3   0.134281 0.658593 0.466607 -0.257733
C48   C     C_3   0.703409 0.798710 0.581996 -0.277878
C49   C     C_3   0.647312 0.184206 0.545294 -0.261909
C50   C     C_3   0.188161 0.330776 0.504415 -0.282349
C51   C     C_3   0.147301 0.684162 0.545304 -0.261600
C52   C     C_3   0.688145 0.830783 0.504421 -0.282037
C53   C     C_R   0.782848 0.161238 0.561042 -0.000536
C54   C     C_R   0.222566 0.137471 0.433919 0.034879
C55   C     C_R   0.282842 0.661225 0.561045 0.000108
C56   C     C_R   0.722563 0.637470 0.433919 0.035342
H1    H     H_    0.886326 0.089473 0.542486 0.157451
H2    H     H_    0.287792 0.984329 0.406428 0.130382
H3    H     H_    0.386330 0.589499 0.542484 0.157605
H4    H     H_    0.787791 0.484326 0.406426 0.129731
H5    H     H_    0.866374 0.041836 0.417489 0.141511
H6    H     H_    0.314884 0.933471 0.531820 0.120434
H7    H     H_    0.366377 0.541863 0.417485 0.141447
H8    H     H_    0.814885 0.433463 0.531816 0.120348
H9    H     H_    0.116238 0.564898 0.456486 0.157597
H10   H     H_    0.755525 0.830456 0.599946 0.158654
H11   H     H_    0.616244 0.064938 0.456479 0.158042
H12   H     H_    0.255534 0.330445 0.599942 0.157485
H13   H     H_    0.603250 0.230516 0.439427 0.144898
H14   H     H_    0.159370 0.319960 0.618988 0.137463
H15   H     H_    0.103235 0.730476 0.439441 0.145580
H16   H     H_    0.659353 0.819957 0.618997 0.136627
H17   H     H_    0.622661 0.269271 0.563860 0.139479
H18   H     H_    0.135496 0.370139 0.496575 0.134668
H19   H     H_    0.122645 0.769221 0.563874 0.139999
H20   H     H_    0.635472 0.870142 0.496584 0.134610
H21   H     H_    0.638711 0.103783 0.580825 0.142999
H22   H     H_    0.231692 0.379910 0.477358 0.148742
H23   H     H_    0.138706 0.603734 0.580833 0.143513
H24   H     H_    0.731677 0.879928 0.477363 0.149684
C57   C     C_R   0.988727 0.328951 0.420669 -0.040848
C58   C     C_R   0.996999 0.347364 0.570900 -0.046871
C59   C     C_R   0.488745 0.828954 0.420682 -0.040153
C60   C     C_R   0.497024 0.847365 0.570913 -0.045388
C61   C     C_R   0.006244 0.106725 0.432831 -0.083191
C62   C     C_R   0.032843 0.132876 0.578360 -0.082309
C63   C     C_R   0.506265 0.606726 0.432847 -0.083400
C64   C     C_R   0.532860 0.632879 0.578377 -0.082275
C65   C     C_R   0.025250 0.006289 0.474310 -0.131456
C66   C     C_R   0.039950 0.019927 0.546636 -0.118481
C67   C     C_R   0.525266 0.506289 0.474328 -0.131679
C68   C     C_R   0.539963 0.519928 0.546654 -0.118537
C69   C     C_R   0.010267 0.234795 0.538059 -0.009153
C70   C     C_R   0.001697 0.223587 0.463136 0.006567
C71   C     C_R   0.510291 0.734799 0.538072 -0.008719
C72   C     C_R   0.501720 0.723589 0.463149 0.006690
H25   H     H_    0.028626 0.917753 0.450160 0.106834
H26   H     H_    0.055900 0.942724 0.578712 0.113284
H27   H     H_    0.528639 0.417752 0.450180 0.106354
H28   H     H_    0.555906 0.442725 0.578734 0.112381
H29   H     H_    0.992364 0.090809 0.377613 0.133846
H30   H     H_    0.046658 0.140212 0.634325 0.134801
H31   H     H_    0.492385 0.590806 0.377629 0.133224
H32   H     H_    0.546672 0.640217 0.634343 0.133159
C73   C     C_R   0.983549 0.452189 0.526770 0.002469
C74   C     C_R   0.967881 0.436344 0.454093 0.000364
C75   C     C_R   0.483580 0.952192 0.526783 0.003227
C76   C     C_R   0.467905 0.936349 0.454109 -0.000182
C77   C     C_R   0.984520 0.573283 0.552222 -0.075634
C78   C     C_R   0.937887 0.532799 0.414229 -0.080631
C79   C     C_R   0.484557 0.073285 0.552237 -0.075640
C80   C     C_R   0.437905 0.032805 0.414251 -0.080668
C81   C     C_R   0.957679 0.669101 0.511462 -0.131638
C82   C     C_R   0.931947 0.647953 0.443350 -0.114667
C83   C     C_R   0.457710 0.169105 0.511482 -0.132058
C84   C     C_R   0.431967 0.147959 0.443375 -0.114753
H33   H     H_    0.920465 0.519375 0.359708 0.127439
H34   H     H_    0.008329 0.596931 0.602501 0.144600
H35   H     H_    0.420473 0.019383 0.359733 0.130042
H36   H     H_    0.508367 0.096924 0.602517 0.142862
H37   H     H_    0.957212 0.759968 0.532761 0.109884
H38   H     H_    0.910030 0.721676 0.411987 0.127036
H39   H     H_    0.457246 0.259971 0.532783 0.109279
H40   H     H_    0.410042 0.221682 0.412017 0.127384
C85   C     C_R   0.773136 0.120424 0.091033 0.010305
C86   C     C_R   0.236544 0.103603 0.915133 -0.049297
C87   C     C_R   0.262054 0.603025 0.083412 -0.052278
C88   C     C_R   0.737380 0.591603 0.917200 -0.042395
C89   C     C_R   0.835316 0.088788 0.054013 -0.076137
C90   C     C_R   0.175428 0.072007 0.953411 -0.100630
C91   C     C_R   0.323286 0.571724 0.045752 -0.108284
C92   C     C_R   0.697648 0.517657 0.962312 0.001080
C93   C     C_R   0.841696 0.109664 0.980253 -0.024681
C94   C     C_R   0.172878 0.082133 0.027734 -0.016198
C95   C     C_R   0.325098 0.578638 0.971410 -0.031371
C96   C     C_R   0.695254 0.536265 0.035575 -0.043045
C97   C     C_R   0.737686 0.226462 0.981895 0.364646
C98   C     C_R   0.288265 0.166319 0.026682 0.331038
C99   C     C_R   0.209354 0.661333 0.970660 0.339446
C100  C     C_R   0.741714 0.736612 0.013270 0.354546
C101  C     C_R   0.735847 0.215516 0.058104 -0.069254
C102  C     C_R   0.285541 0.172105 0.951400 -0.085083
C103  C     C_R   0.211857 0.668366 0.045696 -0.088001
C104  C     C_R   0.753588 0.707773 0.940539 -0.062308
C105  C     C_3   0.878768 0.976020 0.049976 -0.125070
C106  C     C_3   0.138581 0.953077 0.956503 -0.139984
C107  C     C_3   0.361723 0.453967 0.045301 -0.154468
C108  C     C_3   0.619913 0.501901 0.957705 -0.130240
C109  C     C_3   0.878379 0.992393 0.968978 0.339211
C110  C     C_3   0.138772 0.961558 0.036790 0.286905
C111  C     C_3   0.359879 0.458763 0.964922 0.283333
C112  C     C_3   0.619803 0.499325 0.037908 0.263538
C113  C     C_R   0.788727 0.166605 0.940817 0.010700
C114  C     C_R   0.231451 0.120466 0.065784 -0.004633
C115  C     C_R   0.266392 0.614840 0.932800 -0.004524
C116  C     C_R   0.721233 0.645334 0.062995 0.054361
H41   H     H_    0.695031 0.260097 0.087598 0.173029
H42   H     H_    0.328964 0.207324 0.921563 0.222505
H43   H     H_    0.168355 0.704175 0.074430 0.221256
H44   H     H_    0.773798 0.774650 0.902951 0.156236
H45   H     H_    0.854135 0.891279 0.069291 0.220348
H46   H     H_    0.172992 0.880865 0.937671 0.192305
H47   H     H_    0.329001 0.381014 0.066849 0.206381
H48   H     H_    0.600710 0.417271 0.933493 0.225376
H49   H     H_    0.931164 0.990688 0.073567 0.199503
H50   H     H_    0.085820 0.956933 0.932180 0.235661
H51   H     H_    0.414988 0.460445 0.068194 0.194083
H52   H     H_    0.594262 0.584059 0.934849 0.152118
H53   H     H_    0.845226 0.927498 0.939924 0.200373
H54   H     H_    0.173857 0.897854 0.064882 0.111371
H55   H     H_    0.324008 0.395021 0.939444 0.115919
H56   H     H_    0.611262 0.408133 0.061965 0.192107
C117  C     C_R   0.992298 0.336904 0.079723 0.010272
C118  C     C_R   0.979907 0.343795 0.930573 -0.001918
C119  C     C_R   0.501015 0.844370 0.075873 0.015913
C120  C     C_R   0.496598 0.833594 0.925016 0.003208
C121  C     C_R   0.960993 0.437060 0.045546 -0.060605
C122  C     C_R   0.953758 0.439414 0.971690 -0.035620
C123  C     C_R   0.524261 0.936688 0.031375 0.057191
C124  C     C_R   0.526090 0.932077 0.958670 0.004077
C125  C     C_R   0.003447 0.238831 0.964375 -0.095828
C126  C     C_R   0.006478 0.233696 0.038745 -0.124426
C127  C     C_R   0.475212 0.734123 0.968169 -0.115544
C128  C     C_R   0.476018 0.740043 0.043409 -0.066909
C129  C     C_3   0.976889 0.570649 0.046421 0.126149
C130  C     C_3   0.974179 0.570542 0.965336 0.148056
C131  C     C_3   0.517953 0.069706 0.035163 0.123169
C132  C     C_3   0.517589 0.068393 0.954148 0.108849
H57   H     H_    0.023277 0.164422 0.933056 0.205202
H58   H     H_    0.028701 0.154763 0.063355 0.229526
H59   H     H_    0.453539 0.656334 0.943496 0.226606
H60   H     H_    0.458852 0.663640 0.075806 0.176298
H61   H     H_    0.935867 0.621223 0.076199 0.156896
H62   H     H_    0.025551 0.582313 0.937650 0.216598
H63   H     H_    0.470195 0.102254 0.063190 0.208317
H64   H     H_    0.561690 0.116555 0.926836 0.183470
F1    F     F_    0.681923 0.272436 0.948115 -0.657189
F2    F     F_    0.349856 0.185069 0.060044 -0.647895
F3    F     F_    0.148363 0.683310 0.936310 -0.629899
F4    F     F_    0.742542 0.853815 0.033212 -0.657528
F5    F     F_    0.944371 0.004126 0.939886 -0.617994
F6    F     F_    0.072443 0.964714 0.066068 -0.609042
F7    F     F_    0.425558 0.460502 0.933742 -0.613669
F8    F     F_    0.577296 0.585699 0.066951 -0.645418
N1    N     N_R   0.046663 0.600931 0.068384 0.096503
O53   O     O_R   0.055210 0.683603 0.116826 -0.314584
O54   O     O_R   0.097946 0.530140 0.049734 -0.356440
N2    N     N_R   0.921643 0.651916 0.935549 0.071279
O55   O     O_R   0.926835 0.682132 0.868068 -0.285101
O56   O     O_R   0.891008 0.727812 0.977970 -0.410765
N3    N     N_R   0.581749 0.118931 0.061379 0.064822
O57   O     O_R   0.580018 0.193009 0.115166 -0.370121
O58   O     O_R   0.638340 0.060243 0.045062 -0.316803
N4    N     N_R   0.449645 0.104908 0.929493 0.082056
O59   O     O_R   0.444546 0.188521 0.879944 -0.309581
O60   O     O_R   0.396892 0.035002 0.945502 -0.361119

loop_
_geom_bond_atom_site_label_1
_geom_bond_atom_site_label_2
_geom_bond_distance
_ccdc_geom_bond_type
C18   O42   1.263866 A    
C80   H35   1.083633 S    
C107  C111  1.498816 S    
C75   C76   1.402341 A    
O4    C12   1.288073 A    
O47   Cr11  1.959778 S    
C69   C70   1.413895 A    
C62   C69   1.414427 A    
O39   C19   1.283395 A    
O20   Cr12  2.064327 S    
C88   C104  1.393874 A    
C73   C74   1.402356 A    
Cr11  O51   1.991015 S    
N3    O57   1.300801 A    
C36   C52   1.488986 S    
C130  N2    1.457164 S    
C14   C87   1.474425 S    
C92   C96   1.383307 A    
C39   H3    1.080764 S    
Cr7   O51   1.994418 S    
C100  F4    1.349586 S    
O1    C9    1.259370 A    
C131  C132  1.509969 S    
C58   C69   1.412985 A    
C94   C114  1.399576 A    
C59   C76   1.401511 A    
O7    C3    1.274575 A    
C80   C84   1.391539 A    
C32   C48   1.494040 S    
C27   C31   1.397467 A    
C129  C130  1.512287 S    
C107  H51   1.111238 S    
C89   C93   1.395367 A    
C95   C111  1.486498 S    
C88   C92   1.387263 A    
C132  N4    1.439124 S    
N3    O58   1.298174 A    
C97   F1    1.340461 S    
O25   C21   1.256414 A    
C20   C116  1.466396 S    
C35   C51   1.491046 S    
O38   Cr6   1.957390 S    
C108  H52   1.112895 S    
C10   C57   1.478471 S    
C99   F3    1.356692 S    
C34   C50   1.488851 S    
C85   C101  1.406738 A    
C90   C106  1.489886 S    
O34   Cr6   2.048061 S    
C30   C34   1.382488 A    
C81   H37   1.082442 S    
C123  C124  1.356536 A    
C62   H30   1.081868 S    
C109  F5    1.376442 S    
C120  C124  1.383416 A    
C60   C75   1.435644 A    
O23   Cr11  1.931397 S    
C100  C116  1.413741 A    
C17   C113  1.498952 S    
C121  C122  1.384250 A    
O30   C14   1.297514 A    
C101  H41   1.074372 S    
O32   Cr4   1.931821 S    
C1    O9    1.269596 A    
C112  F8    1.366934 S    
C61   C65   1.393593 A    
C84   H40   1.082609 S    
C131  H63   1.111176 S    
C52   H24   1.108924 S    
C3    O11   1.269601 A    
C28   C44   1.403657 A    
O11   Cr7   2.054765 S    
C64   C68   1.391584 A    
O21   C9    1.298517 A    
C49   H21   1.112278 S    
N2    O55   1.300159 A    
C131  N3    1.428675 S    
C45   H11   1.108495 S    
C120  C127  1.411575 A    
C5    C53   1.464624 S    
C124  C132  1.514061 S    
C46   H12   1.112682 S    
C42   H6    1.084292 S    
C96   C112  1.501139 S    
C22   C117  1.453397 S    
C7    O19   1.307637 A    
O8    C4    1.288738 A    
O3    Cr3   2.059371 S    
C61   C70   1.415882 A    
C46   C50   1.514919 S    
O2    Cr2   2.051848 S    
C85   C89   1.416961 A    
O14   Cr6   1.932218 S    
O2    C10   1.288072 A    
C40   C44   1.389253 A    
O10   Cr6   2.078214 S    
O24   C12   1.273882 A    
O42   Cr10  2.064812 S    
C64   C71   1.414423 A    
Cr5   O49   1.994418 S    
O18   Cr10  2.064327 S    
C33   C53   1.402472 A    
C107  H47   1.090778 S    
N1    O53   1.301887 A    
C83   H39   1.082444 S    
C25   C29   1.397455 A    
C106  H46   1.093088 S    
C38   C54   1.398748 A    
C110  H54   1.102888 S    
C105  H45   1.102399 S    
C99   C115  1.396369 A    
C48   H16   1.111954 S    
C93   C113  1.401588 A    
C59   C72   1.421539 A    
C98   F2    1.354466 S    
C1    C28   1.425136 S    
C64   H32   1.081872 S    
C47   H9    1.108499 S    
Cr9   O49   1.991015 S    
C34   C54   1.392961 A    
C91   C95   1.386673 A    
C63   H31   1.081082 S    
C28   C32   1.390351 A    
C37   C41   1.397307 A    
C4    O12   1.269573 A    
O24   Cr12  1.944494 S    
C51   H23   1.112283 S    
O30   Cr2   1.931821 S    
C26   C30   1.390291 A    
C123  C131  1.474870 S    
O22   C10   1.273883 A    
C8    C56   1.429399 S    
C45   H13   1.110870 S    
O48   Cr12  1.946837 S    
C108  C112  1.494448 S    
C4    C25   1.467571 S    
C61   H29   1.081086 S    
C26   C42   1.403630 A    
C5    O17   1.307651 A    
C2    O10   1.269574 A    
C129  H61   1.111990 S    
O23   C11   1.298526 A    
O16   Cr8   1.932218 S    
C103  H43   1.065125 S    
C110  F6    1.378836 S    
C15   O35   1.262855 A    
C126  H58   1.069338 S    
C87   C91   1.406756 A    
C67   H27   1.081882 S    
O27   C23   1.271518 A    
C106  C110  1.500125 S    
O6    Cr2   1.961394 S    
C75   C79   1.422946 A    
C30   C46   1.493930 S    
C105  C109  1.518081 S    
Cr4   O52   1.990769 S    
O28   Cr4   2.079387 S    
C97   C113  1.406091 A    
O43   Cr11  2.048640 S    
C119  C128  1.392958 A    
O12   Cr8   2.078214 S    
C60   C71   1.412962 A    
C122  C130  1.501528 S    
O22   Cr10  1.944494 S    
O15   C7    1.305301 A    
C41   H5    1.081476 S    
O21   Cr9   1.931397 S    
C82   H38   1.082601 S    
C129  N1    1.440704 S    
C127  H59   1.064030 S    
O46   Cr10  1.946837 S    
O39   Cr7   1.934823 S    
C91   C107  1.493215 S    
C13   C88   1.459357 S    
C89   C105  1.498986 S    
C71   C72   1.413896 A    
O3    C11   1.259367 A    
O48   C24   1.282634 A    
O13   Cr5   1.954820 S    
C13   O33   1.261549 A    
C106  H50   1.111143 S    
C24   C119  1.445186 S    
C95   C115  1.395306 A    
N4    O59   1.301719 A    
O36   Cr8   2.048061 S    
C105  H49   1.111094 S    
C44   H8    1.084325 S    
O15   Cr7   1.954820 S    
O35   Cr7   2.071598 S    
Cr1   O49   1.990579 S    
C16   C85   1.519785 S    
C38   H2    1.083399 S    
C9    C58   1.482316 S    
C99   C103  1.402485 A    
Cr3   O51   1.990579 S    
O26   C22   1.269931 A    
C51   H19   1.108245 S    
C118  C122  1.401188 A    
C81   C82   1.387406 A    
O27   Cr3   2.072094 S    
N1    O54   1.302292 A    
O8    Cr4   1.961394 S    
C6    O18   1.299042 A    
O37   Cr5   1.934823 S    
C96   C116  1.405167 A    
C12   C59   1.478477 S    
N4    O60   1.301376 A    
C46   H14   1.111878 S    
C119  C123  1.377378 A    
C104  H44   1.080845 S    
C2    C27   1.467570 S    
C48   H10   1.112753 S    
C33   C49   1.491038 S    
C94   C110  1.488963 S    
C50   H22   1.108832 S    
C48   C52   1.514925 S    
C93   C109  1.488432 S    
C100  C104  1.412405 A    
C132  H64   1.114032 S    
O31   Cr3   1.941475 S    
C39   C43   1.397303 A    
O26   Cr2   2.079387 S    
O25   Cr1   2.072094 S    
C98   C102  1.404914 A    
C6    C54   1.429390 S    
C111  H55   1.097474 S    
C78   C82   1.391526 A    
C57   C74   1.401500 A    
C108  H48   1.105781 S    
O29   C13   1.296544 A    
O28   C24   1.267424 A    
C112  H56   1.108167 S    
C87   C103  1.391551 A    
C19   O43   1.265957 A    
C66   H26   1.080278 S    
C121  C129  1.505093 S    
C39   C55   1.400854 A    
C8    O20   1.299038 A    
C111  F7    1.381121 S    
C19   C115  1.454711 S    
O17   Cr9   2.080325 S    
O37   C17   1.326805 A    
C77   H34   1.079871 S    
O7    Cr3   1.951983 S    
C127  C128  1.404521 A    
C128  H60   1.080647 S    
C17   O41   1.300654 A    
C40   H4    1.083415 S    
C74   C78   1.415062 A    
C45   C49   1.519105 S    
Cr2   O50   1.990769 S    
C35   C55   1.402469 A    
C78   H33   1.083637 S    
C14   O34   1.263507 A    
C31   C47   1.490674 S    
C63   C67   1.393599 A    
O40   Cr8   1.957390 S    
C117  C121  1.405538 A    
C20   O44   1.296853 A    
C49   H17   1.108236 S    
C37   C53   1.400852 A    
C63   C72   1.415884 A    
C98   C114  1.395989 A    
C15   C86   1.480922 S    
O14   C6    1.306074 A    
C86   C102  1.389140 A    
C65   C66   1.388881 A    
O1    Cr1   2.059371 S    
C73   C77   1.422951 A    
Cr8   O52   1.994420 S    
O32   C16   1.321712 A    
Cr10  O50   1.991012 S    
C23   C120  1.438757 S    
O9    Cr5   2.054765 S    
C47   C51   1.519111 S    
C57   C70   1.421524 A    
C18   C114  1.462886 S    
C3    C26   1.425143 S    
C47   H15   1.110876 S    
C90   C94   1.391216 A    
Cr12  O52   1.991012 S    
C125  H57   1.079948 S    
C102  H42   1.067168 S    
O45   C21   1.281583 A    
C32   C36   1.382489 A    
C118  C125  1.388663 A    
O19   Cr11  2.080325 S    
C109  H53   1.105882 S    
C29   C33   1.386909 A    
O33   Cr5   2.071598 S    
C117  C126  1.403643 A    
C38   C42   1.389252 A    
C31   C35   1.386891 A    
O47   C23   1.271124 A    
C11   C60   1.482296 S    
C50   H18   1.108038 S    
O5    Cr1   1.951983 S    
C36   C56   1.393020 A    
C21   C118  1.431766 S    
C37   H1    1.080758 S    
O4    Cr4   2.051848 S    
O6    C2    1.288729 A    
C86   C90   1.407285 A    
O29   Cr1   1.941475 S    
C83   C84   1.387408 A    
C92   C108  1.501739 S    
O40   C20   1.321919 A    
C16   O36   1.260561 A    
O38   C18   1.289420 A    
O46   C22   1.278343 A    
C68   H28   1.080279 S    
O44   Cr12  2.064812 S    
C79   C83   1.394999 A    
Cr6   O50   1.994420 S    
C62   C66   1.391593 A    
C58   C73   1.435665 A    
C25   C41   1.412746 A    
C67   C68   1.388884 A    
C97   C101  1.423961 A    
O45   Cr9   1.959778 S    
C7    C55   1.464589 S    
O41   Cr9   2.048640 S    
O5    C1    1.274576 A    
C43   H7    1.081484 S    
C52   H20   1.108148 S    
C77   C81   1.394995 A    
C125  C126  1.388002 A    
N2    O56   1.295420 A    
O31   C15   1.299688 A    
O16   C8    1.306084 A    
C65   H25   1.081884 S    
C130  H62   1.113950 S    
C76   C80   1.415060 A    
C29   C45   1.490652 S    
C79   H36   1.079879 S    
C40   C56   1.398777 A    
C27   C43   1.412755 A    
O13   C5    1.305314 A    
