data_str_m2_o5_o17_f0_pcu.sym.25
_audit_creation_date              2013-03-05T16:34:52-0500
_audit_creation_method            fapswitch 2.2
_symmetry_space_group_name_H-M    P1
_symmetry_Int_Tables_number       1
_space_group_crystal_system       triclinic
_cell_length_a                    15.053948
_cell_length_b                    9.159181
_cell_length_c                    7.790257
_cell_angle_alpha                 89.999958
_cell_angle_beta                  89.999972
_cell_angle_gamma                 90.000062
_cell_volume                      1074.13492636

loop_
_atom_site_label
_atom_site_type_symbol
_atom_site_description
_atom_site_fract_x
_atom_site_fract_y
_atom_site_fract_z
_atom_type_partial_charge
O1    O     O_R   0.500000 0.288390 0.642760 -0.570504
O2    O     O_R   0.500000 0.711610 0.357240 -0.570503
O3    O     O_R   0.500000 0.711610 0.642760 -0.570504
O4    O     O_R   0.500000 0.288390 0.357240 -0.570504
H1    H     H_    0.920812 0.130665 0.483681 0.174454
H2    H     H_    0.079188 0.869335 0.483661 0.174454
H3    H     H_    0.920813 0.869335 0.516320 0.174454
H4    H     H_    0.079187 0.130665 0.516341 0.174454
C1    C     C_R   0.500000 0.219944 0.500000 0.873104
C2    C     C_R   0.500000 0.780056 0.500000 0.873105
O5    O     O_R   0.370260 0.500000 0.642800 -0.567505
O6    O     O_R   0.629740 0.500000 0.357200 -0.567505
O7    O     O_R   0.629740 0.500000 0.642800 -0.567505
O8    O     O_R   0.370260 0.500000 0.357200 -0.567505
C3    C     C_R   0.328521 0.500000 0.500000 0.874363
C4    C     C_R   0.671479 0.500000 0.500000 0.874366
Cu1   Cu    Cu3+1 0.500000 0.500000 0.669080 1.075081
Cu2   Cu    Cu3+1 0.500000 0.500000 0.330920 1.075081
N1    N     N_1   0.500000 0.500000 0.076820 -0.025985
N2    N     N_1   0.500000 0.500000 0.923180 -0.025985
C5    C     C_R   0.813798 0.630753 0.531474 0.061817
C6    C     C_R   0.186202 0.369247 0.531483 0.061818
C7    C     C_R   0.813798 0.369247 0.468526 0.061818
C8    C     C_R   0.186202 0.630754 0.468517 0.061819
C9    C     C_R   0.767892 0.500000 0.500000 -0.136298
C10   C     C_R   0.232108 0.500000 0.500000 -0.136301
C11   C     C_R   0.906598 0.366669 0.486012 0.076691
C12   C     C_R   0.093402 0.633331 0.486005 0.076690
C13   C     C_R   0.906598 0.633331 0.513988 0.076692
C14   C     C_R   0.093402 0.366669 0.513996 0.076691
C15   C     C_R   0.953210 0.500000 0.500000 0.024089
C16   C     C_R   0.046790 0.500000 0.500000 0.024090
C17   C     C_R   0.954098 0.234900 0.489829 -0.156160
C18   C     C_R   0.045902 0.765100 0.489815 -0.156160
C19   C     C_R   0.954098 0.765100 0.510172 -0.156159
C20   C     C_R   0.045902 0.234900 0.510187 -0.156160
C21   C     C_1   0.500000 0.065235 0.500000 -0.081905
C22   C     C_1   0.500000 0.934765 0.500000 -0.081905
I1    I     I_    0.742045 0.818959 0.615705 -0.320021
I2    I     I_    0.257954 0.181040 0.615729 -0.320019
I3    I     I_    0.742045 0.181041 0.384289 -0.320018
I4    I     I_    0.257955 0.818960 0.384268 -0.320018

loop_
_geom_bond_atom_site_label_1
_geom_bond_atom_site_label_2
_geom_bond_distance
_ccdc_geom_bond_type
C21   C22   1.194992 T    
O7    Cu1   1.963800 S    
O2    Cu2   1.948990 S    
C8    I4    2.137531 S    
C13   C19   1.403137 A    
O1    Cu1   1.948991 S    
N1    N2    1.196896 T    
C7    I3    2.137501 S    
C14   C20   1.403137 A    
C2    C22   1.417015 S    
C6    I2    2.137520 S    
Cu1   N2    1.979504 S    
O5    C3    1.277631 A    
C1    C21   1.417015 S    
Cu1   Cu2   2.634354 S    
C12   C18   1.403138 A    
C13   C15   1.412657 A    
O3    C2    1.276659 A    
C11   C17   1.403137 A    
C14   C16   1.412660 A    
H3    C19   1.079273 S    
C8    C10   1.404265 A    
O3    Cu1   1.948990 S    
C7    C11   1.403827 A    
C7    C9    1.404253 A    
H4    C20   1.079275 S    
C18   C19   1.391090 A    
C11   C15   1.412657 A    
O2    C2    1.276659 A    
O6    C4    1.277631 A    
C12   C16   1.412660 A    
C17   C20   1.391090 A    
O1    C1    1.276659 A    
C8    C12   1.403827 A    
Cu2   N1    1.979504 S    
C6    C10   1.404262 A    
O7    C4    1.277631 A    
O6    Cu2   1.963800 S    
C4    C9    1.451404 S    
O8    Cu2   1.963801 S    
O8    C3    1.277631 A    
O5    Cu1   1.963802 S    
C3    C10   1.451401 S    
C5    C9    1.404251 A    
C6    C14   1.403827 A    
O4    C1    1.276659 A    
C5    C13   1.403826 A    
O4    Cu2   1.948991 S    
C15   C16   1.408747 A    
H2    C18   1.079275 S    
H1    C17   1.079273 S    
C5    I1    2.137487 S    
