data_str_m9_o2_o23_f0_sra.sym.117
_audit_creation_date              2013-03-05T16:03:01-0500
_audit_creation_method            fapswitch 2.2
_symmetry_space_group_name_H-M    P1
_symmetry_Int_Tables_number       1
_space_group_crystal_system       triclinic
_cell_length_a                    6.963557
_cell_length_b                    18.47404
_cell_length_c                    20.013616
_cell_angle_alpha                 68.317297
_cell_angle_beta                  90.240803
_cell_angle_gamma                 90.473143
_cell_volume                      2392.39712632

loop_
_atom_site_label
_atom_site_type_symbol
_atom_site_description
_atom_site_fract_x
_atom_site_fract_y
_atom_site_fract_z
_atom_type_partial_charge
O1    O     O_R   0.488990 0.443920 0.942160 -0.579252
O2    O     O_R   0.823840 0.406530 0.087600 -0.611720
O3    O     O_R   0.999650 0.556080 0.057840 -0.609279
C1    C     C_R   0.655408 0.384817 0.115954 1.031837
O4    O     O_R   0.818390 0.434590 0.944530 -0.589803
O5    O     O_R   0.994160 0.584350 0.913750 -0.584820
C2    C     C_R   0.649523 0.420106 0.924680 0.952350
O6    O     O_R   0.494480 0.415650 0.086250 -0.563295
O7    O     O_3   0.662600 0.549100 0.990070 -0.274328
V1    V     V_3+5 0.935320 0.490890 0.001840 1.191628
O8    O     O_R   0.324240 0.593470 0.912400 -0.592461
C3    C     C_R   0.155485 0.615186 0.884072 0.924106
O9    O     O_R   0.329690 0.565410 0.055470 -0.561457
C4    C     C_R   0.161418 0.579226 0.076133 0.992549
V2    V     V_3+5 0.435990 0.509110 0.998160 1.215502
O10   O     O_3   0.158840 0.450900 0.009930 -0.269947
C5    C     C_3   0.974445 0.683596 0.260179 -0.507056
C6    C     C_3   0.327554 0.696187 0.252935 -0.443664
C7    C     C_3   0.325363 0.745236 0.301851 -0.348782
H1    H     H_    0.973362 0.692771 0.365998 0.221843
H2    H     H_    0.997107 0.621501 0.295263 0.199647
H3    H     H_    0.459361 0.709953 0.219286 0.189167
H4    H     H_    0.337705 0.633249 0.287323 0.170354
H5    H     H_    0.340966 0.705718 0.359033 0.167150
H6    H     H_    0.450965 0.785630 0.288859 0.208604
C8    C     C_1   0.115661 0.873645 0.379544 -0.152488
C9    C     C_3   0.142587 0.711277 0.205299 0.162392
C10   C     C_3   0.966371 0.732639 0.308585 -0.509043
C11   C     C_3   0.135466 0.791940 0.291815 0.160838
C12   C     C_3   0.121546 0.849019 0.211701 0.321133
C13   C     C_3   0.136241 0.802399 0.158942 0.948539
C14   C     C_1   0.126254 0.836162 0.340919 0.093785
C15   C     C_1   0.147433 0.663744 0.159093 0.013283
C16   C     C_1   0.153437 0.625178 0.121308 -0.314954
H7    H     H_    0.980419 0.878595 0.206444 0.016445
H8    H     H_    0.834231 0.682811 0.234318 0.166462
H9    H     H_    0.826749 0.763251 0.301671 0.178528
H10   H     H_    0.162857 0.533015 0.678213 0.227794
C17   C     C_R   0.090713 0.768438 0.884134 -0.165514
C18   C     C_R   0.041481 0.839727 0.887192 -0.188525
C19   C     C_R   0.009842 0.903261 0.824472 -0.139247
C20   C     C_R   0.032494 0.897453 0.756811 0.518637
C21   C     C_R   0.085739 0.824933 0.752253 -0.036015
C22   C     C_R   0.109090 0.758952 0.817510 0.076678
C23   C     C_R   0.114667 0.816282 0.684900 -0.232825
C24   C     C_R   0.143507 0.741059 0.683342 0.035937
C25   C     C_R   0.153127 0.674958 0.748527 0.086272
C26   C     C_R   0.144153 0.684260 0.815671 -0.233889
C27   C     C_R   0.155426 0.730121 0.617067 -0.283158
C28   C     C_R   0.170121 0.656192 0.613991 0.633143
C29   C     C_R   0.167419 0.591082 0.678718 -0.157240
C30   C     C_R   0.164896 0.600266 0.744817 -0.185813
H11   H     H_    0.110453 0.720469 0.934837 0.101443
H12   H     H_    0.021952 0.845260 0.938680 0.166411
H13   H     H_    0.963330 0.957117 0.828712 0.181742
H14   H     H_    0.149571 0.778907 0.566270 0.111864
H15   H     H_    0.166089 0.548015 0.792912 0.166611
H16   H     H_    0.442499 0.461988 0.318147 0.157970
C31   C     C_R   0.751983 0.232134 0.122189 -0.161037
C32   C     C_R   0.787320 0.158902 0.120827 -0.162836
C33   C     C_R   0.747892 0.092967 0.180672 -0.201844
C34   C     C_R   0.677823 0.099151 0.243722 0.318829
C35   C     C_R   0.660726 0.174078 0.249150 -0.038084
C36   C     C_R   0.687846 0.241626 0.185594 0.095067
C37   C     C_R   0.616262 0.183578 0.314943 -0.211914
C38   C     C_R   0.579040 0.259132 0.315133 -0.001264
C39   C     C_R   0.590501 0.326323 0.250319 -0.039058
C40   C     C_R   0.645839 0.316987 0.185252 -0.262095
C41   C     C_R   0.528372 0.268396 0.379976 -0.306790
C42   C     C_R   0.483765 0.340545 0.382436 0.651001
C43   C     C_R   0.488501 0.406077 0.318515 -0.478202
C44   C     C_R   0.550169 0.400861 0.253777 0.540535
H17   H     H_    0.775486 0.280940 0.072450 0.116118
H18   H     H_    0.836979 0.153174 0.071827 0.153296
H19   H     H_    0.761137 0.036352 0.176610 0.155180
H20   H     H_    0.520407 0.219280 0.430428 0.140462
O11   O     O_R   0.770890 0.084490 0.414040 -0.597725
O12   O     O_R   0.445980 0.065450 0.555510 -0.607453
O13   O     O_R   0.270670 0.915620 0.586180 -0.611909
C45   C     C_R   0.615312 0.080370 0.575369 0.976507
O14   O     O_R   0.441480 0.093500 0.412450 -0.567148
O15   O     O_R   0.266140 0.943870 0.442100 -0.551419
C46   C     C_R   0.609736 0.115305 0.384165 0.992491
O16   O     O_R   0.775410 0.056240 0.558120 -0.576418
O17   O     O_3   0.602660 0.950990 0.510100 -0.260996
V3    V     V_3+5 0.329740 0.009100 0.498130 1.233978
O18   O     O_R   0.936120 0.934420 0.444240 -0.573323
C47   C     C_R   0.105000 0.919815 0.424471 0.996966
O19   O     O_R   0.940610 0.906370 0.587310 -0.567590
C48   C     C_R   0.108707 0.884524 0.615677 1.018506
V4    V     V_3+5 0.829110 0.990690 0.501470 1.245918
O20   O     O_3   0.106080 0.049010 0.489880 -0.286190
C49   C     C_3   0.766694 0.282526 0.675640 -0.638496
C50   C     C_3   0.427582 0.243975 0.709283 0.074869
C51   C     C_3   0.417060 0.290100 0.762791 0.427716
H21   H     H_    0.725511 0.317314 0.619283 0.236164
H22   H     H_    0.412035 0.288218 0.653856 0.149305
C52   C     C_1   0.641897 0.374554 0.879599 -0.179720
C53   C     C_3   0.631510 0.210107 0.706719 -0.071669
C54   C     C_3   0.768753 0.331700 0.724953 0.240721
C55   C     C_3   0.629827 0.294426 0.790734 -0.153891
C56   C     C_3   0.708640 0.210724 0.832025 -0.554785
C57   C     C_3   0.709836 0.160715 0.783653 0.284079
C58   C     C_1   0.637866 0.337773 0.840458 0.242785
C59   C     C_1   0.631987 0.165245 0.657919 0.203035
C60   C     C_1   0.625986 0.127210 0.619664 -0.214123
H23   H     H_    0.863019 0.147979 0.776989 0.116615
H24   H     H_    0.859071 0.215262 0.848977 0.218847
H25   H     H_    0.914527 0.263512 0.671933 0.259405
H26   H     H_    0.916750 0.327823 0.746652 0.180553
H27   H     H_    0.634239 0.182608 0.883951 0.260707
O21   O     O_3   0.272835 0.904958 0.198280 -0.586190
C61   C     C_3   0.216894 0.977479 0.146887 -0.020302
H28   H     H_    0.110984 0.005824 0.170513 0.113901
H29   H     H_    0.157399 0.971528 0.097469 0.134020
H30   H     H_    0.345229 0.016008 0.131113 0.159835
O22   O     O_3   0.977657 0.959129 0.695658 -0.661921
C62   C     C_3   0.083122 0.026721 0.688942 -0.031224
H31   H     H_    0.234779 0.014542 0.707689 0.145956
H32   H     H_    0.007208 0.058879 0.717822 0.184157
H33   H     H_    0.088517 0.064788 0.631285 0.190688
O23   O     O_3   0.169051 0.651083 0.546285 -0.641791
C63   C     C_3   0.283889 0.589470 0.543831 -0.157506
H34   H     H_    0.203186 0.533500 0.564815 0.199208
H35   H     H_    0.422658 0.585223 0.572921 0.178498
H36   H     H_    0.318757 0.600651 0.486834 0.141087
N1    N     N_R   0.596833 0.030126 0.296039 0.217087
O24   O     O_R   0.411754 0.026654 0.305119 -0.416118
O25   O     O_R   0.693094 0.965487 0.316660 -0.421644
O26   O     O_3   0.419758 0.342434 0.447533 -0.607672
C64   C     C_3   0.492325 0.407810 0.460186 -0.164526
H37   H     H_    0.404763 0.460182 0.431526 0.124232
H38   H     H_    0.647014 0.418969 0.445689 0.125261
H39   H     H_    0.479873 0.396125 0.518473 0.207064
O27   O     O_3   0.553810 0.468489 0.193048 -0.616538
C65   C     C_3   0.704624 0.517355 0.198921 -0.202889
H40   H     H_    0.844953 0.486645 0.208903 0.124594
H41   H     H_    0.675259 0.541210 0.241324 0.114486
H42   H     H_    0.715907 0.567779 0.147299 0.183174
N2    N     N_R   0.732800 0.415143 0.685288 0.278595
O28   O     O_R   0.791165 0.465619 0.712345 -0.382019
O29   O     O_R   0.655579 0.440631 0.621514 -0.419588
N3    N     N_R   0.271262 0.188129 0.715419 0.229250
O30   O     O_R   0.180963 0.192575 0.657011 -0.482595
O31   O     O_R   0.250910 0.125165 0.772151 -0.361297
N4    N     N_R   0.344583 0.369843 0.722259 0.234678
O32   O     O_R   0.218225 0.381520 0.671236 -0.444971
O33   O     O_R   0.365013 0.424023 0.748754 -0.388056
N5    N     N_R   0.285479 0.253521 0.824582 0.226209
O34   O     O_R   0.303370 0.181509 0.867878 -0.350444
O35   O     O_R   0.168792 0.296904 0.843939 -0.413682
N6    N     N_R   0.614469 0.084134 0.817142 0.279643
O36   O     O_R   0.623451 0.033806 0.785840 -0.425187
O37   O     O_R   0.554007 0.059585 0.883304 -0.340582
O38   O     O_3   0.988242 0.825373 0.104875 -0.686385
C66   C     C_3   0.795430 0.813250 0.127627 -0.319930
H43   H     H_    0.767622 0.809384 0.182870 0.139883
H44   H     H_    0.738171 0.760773 0.119669 0.173636
H45   H     H_    0.712918 0.864240 0.092696 0.229396
O39   O     O_3   0.319690 0.822641 0.123949 -0.649672
C67   C     C_3   0.319576 0.831619 0.050453 -0.101976
H46   H     H_    0.254645 0.888285 0.017135 0.186105
H47   H     H_    0.244813 0.783001 0.041054 0.130076
H48   H     H_    0.469142 0.832054 0.031924 0.134251

loop_
_geom_bond_atom_site_label_1
_geom_bond_atom_site_label_2
_geom_bond_distance
_ccdc_geom_bond_type
C53   C57   1.569652 S    
O18   C47   1.303976 A    
C35   C37   1.426758 A    
C54   H26   1.109190 S    
C55   C56   1.562425 S    
C2    C52   1.443937 S    
O18   V4    1.961529 S    
C19   C20   1.406955 A    
C28   O23   1.392655 S    
C1    O6    1.299383 A    
C64   H39   1.108781 S    
C62   H32   1.108125 S    
C67   H46   1.111051 S    
O17   V4    1.715789 S    
O27   C65   1.411877 S    
O17   V3    2.159064 S    
C33   H19   1.083276 S    
C8    C14   1.216303 T    
C24   C27   1.416446 A    
C10   C11   1.552308 S    
C31   C36   1.418089 A    
C11   C12   1.563055 S    
C12   H7    1.113958 S    
C50   N3    1.467430 S    
C36   C40   1.422527 A    
C66   H43   1.099192 S    
N2    O29   1.301641 A    
C39   C44   1.434175 A    
C11   C14   1.494004 S    
C41   C42   1.389583 A    
N5    O35   1.302107 A    
O5    C3    1.297822 A    
C12   C13   1.594232 S    
O12   C45   1.302297 A    
H16   C43   1.081392 S    
C37   C46   1.490167 S    
C38   C41   1.416650 A    
O11   C46   1.301650 A    
V2    O10   2.172323 S    
C45   C60   1.451004 S    
C42   O26   1.391388 S    
C41   H20   1.081005 S    
C6    C7    1.560641 S    
C62   H31   1.115747 S    
C19   H13   1.081648 S    
O13   C48   1.301860 A    
C54   N2    1.472967 S    
C67   H47   1.108812 S    
O8    V2    2.003132 S    
V3    O20   1.709805 S    
C10   H9    1.111035 S    
C51   C55   1.593241 S    
C56   H24   1.111774 S    
C42   C43   1.399493 A    
C51   N5    1.485707 S    
O16   V4    1.979214 S    
O19   V4    2.003018 S    
O7    V1    2.159002 S    
C31   H17   1.079994 S    
C13   O39   1.438162 S    
V4    O20   2.172382 S    
C3    C26   1.489475 S    
C61   H30   1.109399 S    
O12   V3    1.979730 S    
C38   C39   1.428015 A    
C31   C32   1.387232 A    
O1    C2    1.300269 A    
O9    C4    1.302390 A    
C56   H27   1.104275 S    
C56   C57   1.565860 S    
C51   N4    1.486192 S    
C65   H42   1.108879 S    
O21   C61   1.411249 S    
O14   C46   1.297990 A    
C15   C16   1.216582 T    
N4    O33   1.300959 A    
C53   C59   1.496315 S    
N4    O32   1.302438 A    
C9    C13   1.594778 S    
C39   C40   1.430123 A    
C5    C9    1.557136 S    
C63   H34   1.110342 S    
N2    O28   1.301145 A    
C65   H41   1.111545 S    
O19   C48   1.299342 A    
C45   O16   1.298439 A    
C1    C40   1.487746 S    
C44   O27   1.384354 S    
H10   C29   1.076713 S    
H1    C10   1.113501 S    
C50   H22   1.113911 S    
C64   H38   1.114343 S    
C23   C24   1.417448 A    
C9    C15   1.492732 S    
C29   C30   1.394709 A    
C12   O21   1.424517 S    
C32   C33   1.383054 A    
C62   H33   1.108064 S    
O2    C1    1.299311 A    
C21   C22   1.429370 A    
N1    O25   1.300902 A    
O5    V1    2.000561 S    
C34   C35   1.433859 A    
C25   C26   1.418006 A    
C28   C29   1.404898 A    
C50   C51   1.598194 S    
C23   C48   1.490046 S    
C21   C23   1.430093 A    
C49   C54   1.568974 S    
C17   C22   1.414026 A    
O3    C4    1.300036 A    
C57   N6    1.476252 S    
O1    V2    1.962376 S    
C18   C19   1.383867 A    
C5    H8    1.105665 S    
N6    O37   1.301563 A    
C37   C38   1.423132 A    
O6    V2    2.002859 S    
C18   H12   1.081674 S    
O9    V2    1.961288 S    
C20   C21   1.428094 A    
N1    O24   1.300057 A    
O2    V1    1.998007 S    
C17   C18   1.386706 A    
C67   H48   1.106002 S    
O4    C2    1.296770 A    
C61   H28   1.110834 S    
N3    O31   1.298066 A    
C49   C53   1.559553 S    
C24   C25   1.421643 A    
O11   V4    1.998509 S    
C6    H3    1.111493 S    
C5    C10   1.553205 S    
C66   H45   1.106877 S    
C6    C9    1.563600 S    
O14   V3    1.998129 S    
C65   H40   1.113753 S    
C63   H36   1.109160 S    
C4    C16   1.452428 S    
C13   O38   1.439322 S    
O8    C3    1.302860 A    
C20   O22   1.383765 S    
C25   C30   1.412056 A    
C49   H21   1.110012 S    
C27   H14   1.081988 S    
C59   C60   1.215913 T    
O22   C62   1.406525 S    
O39   C67   1.418030 S    
C66   H44   1.109665 S    
C7    H5    1.112376 S    
O7    V2    1.719487 S    
O4    V1    1.979907 S    
O3    V1    1.972671 S    
V1    O10   1.709726 S    
C64   H37   1.110679 S    
O15   V3    1.972641 S    
C17   H11   1.081809 S    
C50   C53   1.565153 S    
C6    H4    1.113663 S    
O15   C47   1.298218 A    
C32   H18   1.082890 S    
C54   C55   1.572615 S    
O26   C64   1.411737 S    
C33   C34   1.398592 A    
C7    H6    1.112307 S    
C5    H2    1.113876 S    
C63   H35   1.114299 S    
C30   H15   1.082519 S    
C35   C36   1.426899 A    
C22   C26   1.417081 A    
C34   N1    1.430713 S    
C43   C44   1.403575 A    
N6    O36   1.300980 A    
C8    C47   1.452517 S    
C27   C28   1.394310 A    
O38   C66   1.408918 S    
C57   H23   1.113337 S    
C55   C58   1.490779 S    
O23   C63   1.412151 S    
N5    O34   1.298540 A    
C52   C58   1.212008 T    
O13   V3    2.000631 S    
N3    O30   1.300905 A    
C49   H25   1.102051 S    
C61   H29   1.112681 S    
C7    C11   1.556264 S    
