data_str_m2_o4_o16_f0_pcu.sym.153
_audit_creation_date              2012-12-10T19:00:12-0500
_audit_creation_method            fapswitch 2.2
_symmetry_space_group_name_H-M    P1
_symmetry_Int_Tables_number       1
_space_group_crystal_system       triclinic
_cell_length_a                    9.549914
_cell_length_b                    10.807654
_cell_length_c                    13.495043
_cell_angle_alpha                 88.622715
_cell_angle_beta                  72.313315
_cell_angle_gamma                 88.761878
_cell_volume                      1326.48239953

loop_
_atom_site_label
_atom_site_type_symbol
_atom_type_description
_atom_site_fract_x
_atom_site_fract_y
_atom_site_fract_z
_atom_type_partial_charge
C1    C     C_R   0.500747 0.737460 0.494759 0.836883
C2    C     C_R   0.438489 0.492020 0.978817 0.077347
C3    C     C_R   0.477303 0.461334 0.872019 0.025384
C4    C     C_R   0.548414 0.484613 0.030449 0.006444
C5    C     C_R   0.693057 0.443283 0.976048 0.079813
C6    C     C_R   0.724302 0.398674 0.875238 0.407278
C7    C     C_R   0.616092 0.404758 0.825370 -0.306871
C8    C     C_R   0.519625 0.517540 0.134831 -0.253624
C9    C     C_R   0.769029 0.467024 0.130117 -0.222417
C10   C     C_R   0.375893 0.488431 0.815176 -0.080187
C11   C     C_R   0.375347 0.939401 0.494140 0.119738
C12   C     C_R   0.421840 0.492905 0.700200 0.774307
C13   C     C_R   0.504387 0.870109 0.478237 -0.167712
C14   C     C_R   0.639061 0.931068 0.445989 -0.314943
C15   C     C_R   0.643170 0.060624 0.453681 0.446985
C16   C     C_R   0.509041 0.128753 0.482733 -0.220630
C17   C     C_R   0.377954 0.066466 0.495926 0.117036
C18   C     C_3   0.238051 0.072779 0.583641 -0.452745
C19   C     C_3   0.234490 0.932578 0.580560 -0.493844
C20   C     C_R   0.948498 0.407164 0.453279 0.216918
C21   C     C_R   0.899941 0.584165 0.555032 -0.058568
C22   C     C_R   0.048841 0.584344 0.554878 -0.074747
C23   C     C_R   0.502677 0.262072 0.496702 0.832965
C24   C     C_R   0.095715 0.406592 0.453881 0.245349
C25   C     C_3   0.150863 0.372845 0.342102 0.209980
C26   C     C_3   0.992424 0.375332 0.341041 -0.537336
C27   C     C_R   0.578794 0.502909 0.300098 0.784192
C28   C     C_R   0.803554 0.442610 0.025010 -0.193835
C29   C     C_R   0.625105 0.499050 0.186445 -0.040706
C30   C     C_R   0.231819 0.526147 0.868653 -0.186493
C31   C     C_R   0.189898 0.544426 0.974989 -0.172728
C32   C     C_R   0.291381 0.529506 0.029514 -0.173865
Cu1   Cu    Cu3+1 0.359330 0.500020 0.500010 0.952578
Cu2   Cu    Cu3+1 0.640670 0.499980 0.499990 0.952207
H1    H     H_    0.853698 0.456165 0.167578 0.148630
H2    H     H_    0.254131 0.107678 0.656237 0.186029
H3    H     H_    0.148827 0.120010 0.559955 0.207948
H4    H     H_    0.246978 0.885825 0.651781 0.196213
H5    H     H_    0.143903 0.897914 0.553462 0.197108
H6    H     H_    0.824077 0.653654 0.598145 0.142741
H7    H     H_    0.084528 0.654091 0.597694 0.141020
H8    H     H_    0.969790 0.452589 0.292234 0.160407
H9    H     H_    0.915789 0.417079 0.983651 0.172825
H10   H     H_    0.414457 0.553849 0.179416 0.138049
H11   H     H_    0.249940 0.547746 0.111363 0.110680
N1    N     N_R   0.852320 0.499070 0.499340 -0.189517
N2    N     N_R   0.148230 0.499110 0.499340 -0.216851
O1    O     O_R   0.381190 0.680360 0.500000 -0.583072
O2    O     O_R   0.618780 0.680320 0.499990 -0.590153
O3    O     O_R   0.323230 0.500000 0.650990 -0.575147
O4    O     O_R   0.560820 0.499960 0.650980 -0.582864
O5    O     O_R   0.381220 0.319680 0.500010 -0.561540
O6    O     O_R   0.618810 0.319640 0.500000 -0.539295
O7    O     O_R   0.439180 0.500040 0.349020 -0.600399
O8    O     O_R   0.676770 0.500000 0.349010 -0.579759
O9    O     O_3   0.774314 0.120627 0.442691 -0.608514
C33   C     C_3   0.851532 0.066842 0.508271 0.095857
H12   H     H_    0.950284 0.123446 0.498633 0.162895
H13   H     H_    0.895203 0.973292 0.481776 0.132549
C34   C     C_3   0.761580 0.066397 0.624950 -0.381653
H14   H     H_    0.762227 0.160499 0.655831 0.198595
H15   H     H_    0.644944 0.042453 0.638046 0.221543
C35   C     C_3   0.823218 0.971682 0.686843 -0.957897
H16   H     H_    0.822865 0.877559 0.655697 0.257159
H17   H     H_    0.753793 0.970809 0.769370 0.260088
H18   H     H_    0.936842 0.995184 0.682984 0.265420
H19   H     H_    0.218345 0.447268 0.292968 0.084987
O10   O     O_3   0.212085 0.251658 0.330996 -0.590700
C36   C     C_3   0.316214 0.240900 0.231687 0.078225
H20   H     H_    0.413518 0.297471 0.227700 0.161068
H21   H     H_    0.268129 0.271701 0.169297 0.140477
C37   C     C_3   0.367262 0.106228 0.213449 -0.322049
H22   H     H_    0.413960 0.073800 0.275690 0.225077
H23   H     H_    0.271825 0.047642 0.216300 0.220699
C38   C     C_3   0.484452 0.092164 0.108075 -0.932470
H24   H     H_    0.439882 0.122489 0.044215 0.255325
H25   H     H_    0.519683 0.993584 0.096724 0.260516
H26   H     H_    0.581947 0.148492 0.104454 0.258375
O11   O     O_3   0.865017 0.358001 0.821661 -0.619413
C39   C     C_3   0.873059 0.227011 0.822906 0.034491
H27   H     H_    0.945357 0.199123 0.745302 0.181950
H28   H     H_    0.764899 0.181708 0.835559 0.135959
C40   C     C_3   0.943124 0.179519 0.905109 -0.360973
H29   H     H_    0.047238 0.229230 0.895675 0.228931
H30   H     H_    0.866736 0.197086 0.983943 0.214605
C41   C     C_3   0.976442 0.040826 0.896413 -0.912895
H31   H     H_    0.873758 0.988674 0.907439 0.261916
H32   H     H_    0.025892 0.010320 0.957688 0.258139
H33   H     H_    0.055717 0.019524 0.819418 0.256368
H34   H     H_    0.951639 0.283838 0.327409 0.252009
H35   H     H_    0.152042 0.545701 0.827702 0.173576
H36   H     H_    0.078978 0.575185 0.015141 0.145332
H37   H     H_    0.643382 0.362540 0.750133 0.180446
H38   H     H_    0.740201 0.877328 0.422846 0.166777

loop_
_geom_bond_atom_site_label_1
_geom_bond_atom_site_label_2
_ccdc_geom_bond_type
C35   H17   S    
C27   C29   S    
C32   H11   S    
C25   H19   S    
C4    C8    A    
C23   O5    A    
C27   O7    A    
Cu1   O5    S    
C11   C19   S    
Cu2   O4    S    
C34   C35   S    
C8    C29   A    
C19   H5    S    
C2    C32   A    
C18   H3    S    
C3    C7    A    
C39   C40   S    
C30   C31   A    
C39   H27   S    
C41   H32   S    
C33   H13   S    
C22   H7    S    
C15   C16   A    
O9    C33   S    
C34   H15   S    
C18   C19   S    
C36   H21   S    
O10   C36   S    
C40   H29   S    
C16   C17   A    
C1    O2    A    
Cu2   N1    S    
C9    C29   A    
C22   N2    A    
C35   H18   S    
Cu2   O8    S    
C13   C14   A    
C25   O10   S    
C37   C38   S    
C23   O6    A    
C7    H37   S    
C20   C24   A    
C24   C25   S    
C37   H23   S    
C41   H31   S    
C37   H22   S    
C33   C34   S    
C25   C26   S    
O11   C39   S    
C34   H14   S    
C36   C37   S    
C2    C4    A    
C38   H24   S    
C19   H4    S    
C5    C28   A    
C10   C30   A    
C31   C32   A    
C17   C18   S    
C38   H25   S    
C10   C12   S    
C39   H28   S    
C40   H30   S    
C16   C23   S    
Cu1   N2    S    
C1    C13   S    
C12   O4    A    
C26   H8    S    
C21   N1    A    
Cu1   O7    S    
C11   C17   A    
Cu2   O2    S    
C24   N2    A    
C8    H10   S    
C30   H35   S    
C41   H33   S    
C12   O3    A    
C1    O1    A    
C6    C7    A    
C26   H34   S    
C28   H9    S    
C15   O9    S    
C2    C3    A    
Cu1   O3    S    
C3    C10   A    
C11   C13   A    
C33   H12   S    
C5    C6    A    
C21   H6    S    
C20   C26   S    
Cu1   Cu2   S    
C27   O8    A    
C36   H20   S    
C38   H26   S    
C6    O11   S    
C35   H16   S    
C4    C5    A    
C40   C41   S    
Cu2   O6    S    
C31   H36   S    
C9    H1    S    
Cu1   O1    S    
C14   C15   A    
C21   C22   A    
C18   H2    S    
C14   H38   S    
C20   N1    A    
C9    C28   A    
