data_str_m3_o41_o41_f0_fof.sym.73
_audit_creation_date              2012-12-10T16:39:38-0500
_audit_creation_method            fapswitch 2.2
_symmetry_space_group_name_H-M    P1
_symmetry_Int_Tables_number       1
_space_group_crystal_system       triclinic
_cell_length_a                    16.902301
_cell_length_b                    16.90239
_cell_length_c                    16.902336
_cell_angle_alpha                 67.066039
_cell_angle_beta                  67.06548
_cell_angle_gamma                 67.065861
_cell_volume                      3931.27180025

loop_
_atom_site_label
_atom_site_type_symbol
_atom_type_description
_atom_site_fract_x
_atom_site_fract_y
_atom_site_fract_z
_atom_type_partial_charge
C1    C     C_R   0.326517 0.944800 0.460224 0.007414
C2    C     C_R   0.328041 0.455911 0.948995 0.072110
C3    C     C_R   0.546129 0.412735 0.987283 0.013509
C4    C     C_R   0.012888 0.457264 0.583824 0.030787
C5    C     C_R   0.987281 0.546129 0.412737 0.013509
C6    C     C_3   0.386325 0.130341 0.761904 -0.349939
C7    C     C_3   0.324764 0.210517 0.714582 -0.958183
C8    C     C_3   0.611761 0.860593 0.255010 -0.385772
C9    C     C_3   0.571411 0.784153 0.277879 -0.855429
C10   C     C_3   0.130337 0.761896 0.386327 -0.349934
C11   C     C_3   0.210512 0.714569 0.324767 -0.958184
C12   C     C_3   0.860587 0.255002 0.611765 -0.385766
C13   C     C_R   0.053425 0.673893 0.540815 0.009102
C14   C     C_3   0.784150 0.277845 0.571420 -0.855393
C15   C     C_3   0.761883 0.386339 0.130349 -0.349966
C16   C     C_3   0.714536 0.324805 0.210532 -0.958143
C17   C     C_3   0.255016 0.611752 0.860568 -0.385795
C18   C     C_3   0.277871 0.571394 0.784137 -0.855406
C19   C     C_3   0.235167 0.872933 0.616434 -0.337386
C20   C     C_3   0.277610 0.795779 0.684147 -0.973433
C21   C     C_3   0.735601 0.147118 0.393515 -0.412418
C22   C     C_3   0.679135 0.228974 0.429777 -0.882790
C23   C     C_3   0.616443 0.235159 0.872937 -0.337376
C24   C     C_R   0.948997 0.328038 0.455915 0.072112
C25   C     C_3   0.684167 0.277593 0.795789 -0.973441
C26   C     C_3   0.393495 0.735622 0.147080 -0.412413
C27   C     C_3   0.429774 0.679225 0.228933 -0.882760
C28   C     C_3   0.872927 0.616436 0.235167 -0.337385
C29   C     C_3   0.795774 0.684153 0.277607 -0.973410
C30   C     C_3   0.147110 0.393515 0.735594 -0.412442
C31   C     C_3   0.228968 0.429771 0.679120 -0.882798
C32   C     C_R   0.456830 0.975234 0.460201 -0.061629
C33   C     C_R   0.540043 0.024116 0.543432 -0.063520
C34   C     C_R   0.975218 0.460205 0.456836 -0.061628
C35   C     C_R   0.024101 0.543435 0.540048 -0.063522
C36   C     C_R   0.460207 0.456835 0.975215 -0.061629
C37   C     C_R   0.543435 0.540051 0.024095 -0.063530
C38   C     C_R   0.968712 0.178981 0.435133 0.919519
C39   C     C_R   0.672760 0.048523 0.544924 0.064262
C40   C     C_R   0.033564 0.821266 0.563673 0.893157
C41   C     C_R   0.178982 0.435133 0.968710 0.919523
C42   C     C_R   0.821266 0.563674 0.033561 0.893149
C43   C     C_R   0.435133 0.968713 0.178981 0.919557
C44   C     C_R   0.563672 0.033565 0.821266 0.893159
C45   C     C_R   0.564198 0.820977 0.032725 0.924673
C46   C     C_R   0.436700 0.178821 0.965712 0.891916
C47   C     C_R   0.032728 0.564197 0.820976 0.924609
C48   C     C_R   0.965713 0.436700 0.178822 0.891912
C49   C     C_R   0.820976 0.032730 0.564197 0.924624
C50   C     C_R   0.944789 0.460225 0.326520 0.007411
C51   C     C_R   0.178822 0.965713 0.436700 0.891912
C52   C     C_R   0.412815 0.956768 0.416031 -0.004720
C53   C     C_R   0.584851 0.040967 0.587960 0.005792
C54   C     C_R   0.956753 0.416034 0.412819 -0.004720
C55   C     C_R   0.040956 0.587962 0.584854 0.005790
C56   C     C_R   0.416036 0.412816 0.956753 -0.004722
C57   C     C_R   0.587961 0.584858 0.040950 0.005767
C58   C     C_R   0.276550 0.946199 0.407441 -0.122881
C59   C     C_R   0.723275 0.048669 0.595841 -0.120973
C60   C     C_R   0.946194 0.407442 0.276551 -0.122885
C61   C     C_R   0.048514 0.544926 0.672761 0.064267
C62   C     C_R   0.048666 0.595841 0.723275 -0.120970
C63   C     C_R   0.407443 0.276549 0.946194 -0.122881
C64   C     C_R   0.595843 0.723279 0.048656 -0.120985
C65   C     C_R   0.593442 0.052255 0.723742 -0.124060
C66   C     C_R   0.404279 0.950629 0.277210 -0.105979
C67   C     C_R   0.723742 0.593446 0.052245 -0.124050
C68   C     C_R   0.277212 0.404279 0.950621 -0.105958
C69   C     C_R   0.052250 0.723742 0.593443 -0.124066
C70   C     C_R   0.950622 0.277211 0.404281 -0.105966
C71   C     C_R   0.446265 0.066410 0.705309 0.130304
C72   C     C_R   0.460227 0.326516 0.944791 0.007404
C73   C     C_R   0.549847 0.936919 0.296112 0.116307
C74   C     C_R   0.066401 0.705308 0.446268 0.130314
C75   C     C_R   0.936904 0.296115 0.549850 0.116296
C76   C     C_R   0.705304 0.446273 0.066404 0.130317
C77   C     C_R   0.296121 0.549847 0.936893 0.116293
C78   C     C_R   0.294158 0.934322 0.554549 0.128735
C79   C     C_R   0.702363 0.064918 0.450576 0.132727
C80   C     C_R   0.554552 0.294156 0.934319 0.128731
C81   C     C_R   0.450577 0.702374 0.064887 0.132706
C82   C     C_R   0.934313 0.554550 0.294161 0.128732
C83   C     C_R   0.544925 0.672765 0.048507 0.064321
C84   C     C_R   0.064906 0.450580 0.702364 0.132728
C85   C     C_R   0.317021 0.946519 0.318568 -0.305172
C86   C     C_R   0.682177 0.052202 0.683278 -0.303559
C87   C     C_R   0.946515 0.318568 0.317022 -0.305173
C88   C     C_R   0.052199 0.683278 0.682177 -0.303543
C89   C     C_R   0.318569 0.317020 0.946515 -0.305169
C90   C     C_R   0.683279 0.682181 0.052190 -0.303563
C91   C     C_R   0.667030 0.031084 0.410947 0.057769
C92   C     C_R   0.329055 0.970343 0.592392 0.108789
C93   C     C_R   0.031066 0.410953 0.667034 0.057769
C94   C     C_R   0.540812 0.053433 0.673893 0.009100
C95   C     C_R   0.970334 0.592393 0.329058 0.108784
C96   C     C_R   0.410955 0.667042 0.031045 0.057712
C97   C     C_R   0.592392 0.329054 0.970343 0.108786
C98   C     C_R   0.588481 0.971298 0.331959 0.041039
C99   C     C_R   0.406913 0.032508 0.669808 0.109308
C100  C     C_R   0.331970 0.588487 0.971264 0.041042
C101  C     C_R   0.669804 0.406917 0.032505 0.109303
C102  C     C_R   0.971281 0.331965 0.588485 0.041034
C103  C     C_R   0.032496 0.669809 0.406917 0.109302
C104  C     C_R   0.711238 0.017791 0.325406 -0.214635
C105  C     C_R   0.455911 0.949012 0.328035 0.072114
C106  C     C_R   0.283501 0.987766 0.676157 -0.223240
C107  C     C_R   0.017772 0.325413 0.711243 -0.214633
C108  C     C_R   0.987760 0.676154 0.283504 -0.223248
C109  C     C_R   0.325418 0.711251 0.017744 -0.214646
C110  C     C_R   0.676150 0.283497 0.987779 -0.223243
C111  C     C_R   0.673751 0.985543 0.287676 -0.215480
C112  C     C_R   0.321297 0.019364 0.713692 -0.221033
C113  C     C_R   0.287690 0.673761 0.985498 -0.215469
C114  C     C_R   0.713683 0.321295 0.019378 -0.221032
C115  C     C_R   0.985524 0.287684 0.673755 -0.215475
C116  C     C_R   0.673891 0.540819 0.053421 0.009118
C117  C     C_R   0.019355 0.713691 0.321301 -0.221042
C118  C     C_R   0.542487 0.987842 0.415863 0.033291
C119  C     C_R   0.453636 0.013560 0.586983 0.011066
C120  C     C_R   0.987824 0.415868 0.542492 0.033292
C121  C     C_R   0.013546 0.586986 0.453641 0.011068
C122  C     C_R   0.415871 0.542494 0.987813 0.033295
C123  C     C_R   0.586985 0.453641 0.013548 0.011068
C124  C     C_R   0.583819 0.012906 0.457258 0.030787
C125  C     C_R   0.412732 0.987295 0.546126 0.013507
C126  C     C_R   0.457266 0.583829 0.012875 0.030801
H1    H     H_    0.277993 0.949347 0.279108 0.192669
H2    H     H_    0.974086 0.222589 0.710498 0.131856
H3    H     H_    0.778294 0.283649 0.031409 0.141856
H4    H     H_    0.222597 0.710503 0.974055 0.131857
H5    H     H_    0.217717 0.978353 0.712821 0.143367
H6    H     H_    0.776307 0.029373 0.288891 0.132117
H7    H     H_    0.712811 0.217709 0.978376 0.143371
H8    H     H_    0.288904 0.776320 0.029323 0.132123
H9    H     H_    0.978351 0.712816 0.217718 0.143373
H10   H     H_    0.029354 0.288900 0.776311 0.132119
H11   H     H_    0.363622 0.249456 0.652087 0.281863
H12   H     H_    0.721447 0.050020 0.722159 0.195758
H13   H     H_    0.277140 0.192143 0.699402 0.274996
H14   H     H_    0.287036 0.250454 0.762806 0.261040
H15   H     H_    0.345823 0.095530 0.826384 0.214628
H16   H     H_    0.425963 0.159671 0.776296 0.211963
H17   H     H_    0.538955 0.762895 0.350909 0.262135
H18   H     H_    0.522597 0.803529 0.240576 0.247005
H19   H     H_    0.623819 0.725281 0.258380 0.244038
H20   H     H_    0.641214 0.884850 0.181863 0.224888
H21   H     H_    0.667830 0.830370 0.285220 0.208553
H22   H     H_    0.249464 0.652087 0.363625 0.281857
H23   H     H_    0.949349 0.279107 0.277992 0.192668
H24   H     H_    0.192136 0.699366 0.277159 0.274997
H25   H     H_    0.250438 0.762801 0.287019 0.261038
H26   H     H_    0.095529 0.826376 0.345823 0.214621
H27   H     H_    0.159669 0.776290 0.425961 0.211961
H28   H     H_    0.762884 0.350870 0.538949 0.262121
H29   H     H_    0.803533 0.240523 0.522620 0.247014
H30   H     H_    0.725280 0.258346 0.623836 0.244035
H31   H     H_    0.884857 0.181858 0.641226 0.224875
H32   H     H_    0.830354 0.285222 0.667826 0.208559
H33   H     H_    0.652039 0.363681 0.249452 0.281852
H34   H     H_    0.050020 0.722158 0.721447 0.195755
H35   H     H_    0.699356 0.277172 0.192170 0.274996
H36   H     H_    0.762745 0.287086 0.250485 0.261057
H37   H     H_    0.826362 0.345821 0.095554 0.214615
H38   H     H_    0.776282 0.425981 0.159670 0.211960
H39   H     H_    0.350896 0.538909 0.762892 0.262130
H40   H     H_    0.240540 0.522604 0.803515 0.247009
H41   H     H_    0.258397 0.623803 0.725254 0.244035
H42   H     H_    0.181871 0.641212 0.884829 0.224888
H43   H     H_    0.285236 0.667813 0.830333 0.208565
H44   H     H_    0.335588 0.748111 0.650846 0.281086
H45   H     H_    0.279107 0.277991 0.949349 0.192668
H46   H     H_    0.298990 0.817122 0.724958 0.276174
H47   H     H_    0.223929 0.763728 0.729110 0.255840
H48   H     H_    0.170267 0.911377 0.652955 0.215405
H49   H     H_    0.221921 0.840653 0.578629 0.211765
H50   H     H_    0.609764 0.249821 0.425096 0.271253
H51   H     H_    0.676540 0.215230 0.500201 0.260452
H52   H     H_    0.708606 0.285804 0.391749 0.249471
H53   H     H_    0.807061 0.136340 0.383593 0.237365
H54   H     H_    0.729366 0.164170 0.325889 0.205336
H55   H     H_    0.650877 0.335559 0.748105 0.281087
H56   H     H_    0.722160 0.721450 0.050010 0.195756
H57   H     H_    0.724963 0.298990 0.817134 0.276177
H58   H     H_    0.729144 0.223903 0.763755 0.255837
H59   H     H_    0.652954 0.170259 0.911389 0.215410
H60   H     H_    0.578641 0.221914 0.840652 0.211765
H61   H     H_    0.425176 0.609822 0.249783 0.271241
H62   H     H_    0.500171 0.676719 0.215184 0.260414
H63   H     H_    0.391701 0.708689 0.285763 0.249474
H64   H     H_    0.383514 0.807100 0.136273 0.237371
H65   H     H_    0.325894 0.729316 0.164157 0.205361
H66   H     H_    0.748091 0.650860 0.335571 0.281083
H67   H     H_    0.283655 0.031383 0.778310 0.141856
H68   H     H_    0.817116 0.724948 0.299007 0.276176
H69   H     H_    0.763739 0.729132 0.223918 0.255838
H70   H     H_    0.911376 0.652952 0.170268 0.215406
H71   H     H_    0.840646 0.578632 0.221920 0.211762
H72   H     H_    0.249792 0.425110 0.609745 0.271253
H73   H     H_    0.215234 0.500187 0.676543 0.260452
H74   H     H_    0.285809 0.391723 0.708572 0.249489
H75   H     H_    0.136340 0.383596 0.807051 0.237367
H76   H     H_    0.164156 0.325891 0.729358 0.205359
H77   H     H_    0.710494 0.974105 0.222581 0.131856
H78   H     H_    0.031377 0.778307 0.283658 0.141863
O1    O     O_R   0.982940 0.138950 0.510160 -0.624697
O2    O     O_R   0.982940 0.510160 0.138950 -0.646925
O3    O     O_R   0.861050 0.017060 0.489840 -0.638937
O4    O     O_R   0.138950 0.982940 0.510160 -0.646927
O5    O     O_R   0.867700 0.025880 0.612340 -0.632283
O6    O     O_R   0.132300 0.974120 0.387660 -0.634811
O7    O     O_R   0.025880 0.612340 0.867700 -0.632287
O8    O     O_R   0.974120 0.387660 0.132300 -0.634809
O9    O     O_R   0.612340 0.867700 0.025880 -0.632299
O10   O     O_R   0.387660 0.132300 0.974120 -0.634816
O11   O     O_R   0.387660 0.974120 0.132300 -0.643617
O12   O     O_R   0.017060 0.861050 0.489840 -0.643339
O13   O     O_R   0.612340 0.025880 0.867700 -0.636466
O14   O     O_R   0.132300 0.387660 0.974120 -0.643628
O15   O     O_R   0.867700 0.612340 0.025880 -0.636463
O16   O     O_R   0.974120 0.132300 0.387660 -0.643629
O17   O     O_R   0.025880 0.867700 0.612340 -0.636462
O18   O     O_R   0.138950 0.510160 0.982940 -0.624700
O19   O     O_R   0.861050 0.489840 0.017060 -0.643333
O20   O     O_R   0.510160 0.982940 0.138950 -0.624712
O21   O     O_R   0.489840 0.017060 0.861050 -0.643346
O22   O     O_R   0.489840 0.861050 0.017060 -0.638925
O23   O     O_R   0.510160 0.138950 0.982940 -0.646932
O24   O     O_R   0.017060 0.489840 0.861050 -0.638936
Zn1   Zn    Zn3+2 0.004880 0.004880 0.583590 0.904016
Zn2   Zn    Zn3+2 0.995120 0.995120 0.416410 0.904860
Zn3   Zn    Zn3+2 0.004880 0.583590 0.004880 0.904017
Zn4   Zn    Zn3+2 0.995120 0.416410 0.995120 0.904867
Zn5   Zn    Zn3+2 0.583590 0.004880 0.004880 0.904007
Zn6   Zn    Zn3+2 0.416410 0.995120 0.995120 0.904848

loop_
_geom_bond_atom_site_label_1
_geom_bond_atom_site_label_2
_ccdc_geom_bond_type
C20   H44   S    
C38   C70   S    
C101  C114  A    
C38   O1    A    
C47   O7    A    
C80   C97   A    
C4    C120  A    
O1    Zn1   S    
C19   C20   S    
C112  H67   S    
C64   C90   A    
C91   C104  A    
C67   C116  A    
C43   O11   A    
C92   C125  A    
C66   C85   A    
C31   H73   S    
C41   O14   A    
C26   H64   S    
C24   C70   A    
C65   C86   A    
C71   C94   A    
C106  C112  A    
C76   C116  A    
C39   C53   A    
C10   C11   S    
C26   C27   S    
C101  C123  A    
O7    Zn3   S    
O21   Zn6   S    
C3    C36   A    
C15   H37   S    
C28   C29   S    
O2    Zn3   S    
C2    C68   A    
C7    H14   S    
C14   H29   S    
C17   H43   S    
C11   H22   S    
C49   O5    A    
C24   C54   A    
C29   H68   S    
C5    C121  A    
C77   C100  A    
C7    H11   S    
C18   H40   S    
C12   H32   S    
C32   C52   A    
C102  C115  A    
C10   H26   S    
C37   C123  A    
C9    H18   S    
C21   H54   S    
C47   O24   A    
C90   H56   S    
C25   H55   S    
C8    C9    S    
C56   C72   A    
C33   C124  A    
O12   Zn2   S    
C46   O23   A    
C57   C83   A    
C98   C118  A    
C98   C111  A    
C12   H31   S    
C6    H16   S    
C117  H78   S    
C44   O21   A    
C110  C114  A    
C79   C91   A    
C41   O18   A    
C25   H58   S    
C109  C113  A    
O4    Zn1   S    
C84   C93   A    
C23   C25   S    
C15   C76   S    
C53   C94   A    
C4    C35   A    
C21   C22   S    
C14   H28   S    
C16   H33   S    
C34   C120  A    
C1    C78   A    
C63   C89   A    
C44   C65   S    
C103  C117  A    
O11   Zn6   S    
C47   C62   S    
C22   H51   S    
O9    Zn5   S    
C70   C87   A    
C10   H27   S    
C31   H74   S    
C5    C95   A    
C18   H39   S    
C3    C123  A    
C48   C60   S    
C41   C68   S    
C33   C53   A    
C106  H5    S    
O23   Zn5   S    
C40   C69   S    
C44   O13   A    
C28   C82   S    
C38   O16   A    
C15   H38   S    
C35   C121  A    
C89   H45   S    
C108  H9    S    
C42   O15   A    
C113  H4    S    
O13   Zn5   S    
C9    H17   S    
C81   C96   A    
C51   O4    A    
C118  C124  A    
C78   C92   A    
C29   H69   S    
C37   C57   A    
C71   C99   A    
C17   H42   S    
C67   C90   A    
C115  H2    S    
C57   C116  A    
C104  C111  A    
C60   C87   A    
C32   C125  A    
C122  C126  A    
C19   C78   S    
C36   C122  A    
O20   Zn5   S    
C64   C83   A    
C107  H10   S    
C36   C56   A    
C75   C102  A    
C3    C97   A    
C11   H24   S    
C73   C105  A    
C20   H47   S    
O15   Zn3   S    
C26   H65   S    
C39   C59   A    
C5    C34   A    
C40   O12   A    
C17   C77   S    
C17   C18   S    
O6    Zn2   S    
C29   H66   S    
C96   C126  A    
C24   C75   A    
C51   C58   S    
O5    Zn1   S    
C13   C74   A    
C6    H15   S    
C27   H62   S    
C107  C115  A    
C35   C55   A    
C69   C88   A    
C48   O2    A    
C48   O8    A    
C119  C125  A    
C11   H25   S    
C65   C94   A    
C20   H46   S    
C12   C14   S    
O18   Zn3   S    
C34   C54   A    
C26   C81   S    
C91   C124  A    
C87   H23   S    
C42   C67   S    
C23   C80   S    
C114  H3    S    
C85   H1    S    
C8    H21   S    
C66   C105  A    
C111  H77   S    
C42   O19   A    
C103  C121  A    
C58   C85   A    
O24   Zn4   S    
C102  C120  A    
O19   Zn4   S    
C50   C82   A    
C23   H59   S    
C37   C126  A    
O14   Zn4   S    
C92   C106  A    
C76   C101  A    
C30   H75   S    
C82   C95   A    
C14   H30   S    
C109  H8    S    
C108  C117  A    
C8    H20   S    
C100  C113  A    
C32   C118  A    
C6    C71   S    
C61   C84   A    
C49   C59   S    
C81   C83   A    
C23   H60   S    
C22   H50   S    
C18   H41   S    
O3    Zn2   S    
C33   C119  A    
C6    C7    S    
C16   H35   S    
C96   C109  A    
C40   O17   A    
C45   C64   S    
C28   H71   S    
O22   Zn6   S    
O16   Zn2   S    
C46   C63   S    
C27   H61   S    
C16   H36   S    
C13   C69   A    
C43   O20   A    
C19   H48   S    
C50   C60   A    
C50   C54   A    
C22   H52   S    
C2    C56   A    
C1    C58   A    
C93   C107  A    
C7    H13   S    
C97   C110  A    
C10   C74   S    
C51   O6    A    
C30   C31   S    
C62   C88   A    
C21   C79   S    
C43   C66   S    
O8    Zn4   S    
C99   C112  A    
C55   C61   A    
C9    H19   S    
C8    C73   S    
C28   H70   S    
C100  C122  A    
C45   O22   A    
C88   H34   S    
C30   C84   S    
C61   C62   A    
C45   O9    A    
C1    C52   A    
C19   H49   S    
C73   C98   A    
C59   C86   A    
C52   C105  A    
C95   C108  A    
C86   H12   S    
C99   C119  A    
C4    C93   A    
C25   H57   S    
C21   H53   S    
C30   H76   S    
C63   C72   A    
C72   C80   A    
C104  H6    S    
C12   C75   S    
O17   Zn1   S    
C2    C77   A    
C49   O3    A    
O10   Zn6   S    
C110  H7    S    
C27   H63   S    
C68   C89   A    
C31   H72   S    
C46   O10   A    
C15   C16   S    
C39   C79   A    
C74   C103  A    
C13   C55   A    
