data_str_m2_o1_o17_f0_pcu.sym.211
_audit_creation_date              2012-12-10T17:57:53-0500
_audit_creation_method            fapswitch 2.2
_symmetry_space_group_name_H-M    P1
_symmetry_Int_Tables_number       1
_space_group_crystal_system       triclinic
_cell_length_a                    10.82655
_cell_length_b                    9.507266
_cell_length_c                    15.134575
_cell_angle_alpha                 89.833188
_cell_angle_beta                  86.199229
_cell_angle_gamma                 90.017114
_cell_volume                      1554.38221309

loop_
_atom_site_label
_atom_site_type_symbol
_atom_type_description
_atom_site_fract_x
_atom_site_fract_y
_atom_site_fract_z
_atom_type_partial_charge
C1    C     C_R   0.262633 0.500073 0.495015 0.778087
C2    C     C_R   0.737403 0.499969 0.504836 0.779611
C3    C     C_R   0.280122 0.489012 0.069303 0.462461
C4    C     C_R   0.718418 0.532358 0.930570 0.450552
C5    C     C_R   0.064237 0.372540 0.494057 -0.186568
C6    C     C_R   0.935835 0.627742 0.505488 -0.193770
C7    C     C_R   0.936198 0.372344 0.499123 -0.183274
C8    C     C_R   0.063892 0.627937 0.500416 -0.195026
C9    C     C_R   0.871469 0.499945 0.504634 -0.017327
C10   C     C_R   0.128600 0.500287 0.495044 -0.022692
C11   C     C_R   0.422737 0.074646 0.449038 -0.021326
C12   C     C_R   0.577251 0.925343 0.550968 -0.020952
C13   C     C_R   0.577239 0.074234 0.550974 -0.022035
C14   C     C_R   0.422746 0.925751 0.449025 -0.023091
C15   C     C_R   0.513161 0.500231 0.328724 0.823183
C16   C     C_R   0.486675 0.499750 0.671274 0.824554
C17   C     C_R   0.592895 0.515057 0.805098 -0.263626
C18   C     C_R   0.406693 0.488770 0.194845 -0.282742
C19   C     C_R   0.479299 0.499523 0.768420 -0.067565
C20   C     C_R   0.520491 0.500785 0.231597 -0.064165
C21   C     C_R   0.367736 0.486880 0.824626 0.125077
C22   C     C_R   0.631910 0.514831 0.175475 0.131605
C23   C     C_R   0.377163 0.491919 0.918231 0.023170
C24   C     C_R   0.622099 0.516872 0.081837 0.029330
C25   C     C_R   0.494577 0.505403 0.953579 -0.023623
C26   C     C_R   0.504545 0.505863 0.046498 -0.022967
C27   C     C_R   0.602200 0.517155 0.896318 0.043313
C28   C     C_R   0.396899 0.494102 0.103759 0.038534
C29   C     C_R   0.271143 0.484207 0.978071 -0.328221
C30   C     C_R   0.727830 0.529652 0.022013 -0.326814
Cu1   Cu    Cu3+1 0.500000 0.640660 0.500000 0.930997
Cu2   Cu    Cu3+1 0.500000 0.359340 0.500000 0.935489
H1    H     H_    0.675640 0.525195 0.760916 0.177334
H2    H     H_    0.324156 0.476182 0.238872 0.174700
H3    H     H_    0.178522 0.474695 0.956374 0.156077
H4    H     H_    0.820346 0.536623 0.044002 0.139186
H5    H     H_    0.112566 0.272779 0.490117 0.149452
H6    H     H_    0.887504 0.727500 0.509419 0.149726
H7    H     H_    0.888187 0.272464 0.497924 0.149913
H8    H     H_    0.111915 0.727818 0.501525 0.151075
H9    H     H_    0.360899 0.130945 0.408187 0.125944
H10   H     H_    0.639083 0.869037 0.591827 0.120769
H11   H     H_    0.639050 0.130206 0.591838 0.126011
H12   H     H_    0.360925 0.869772 0.408154 0.123168
N1    N     N_R   0.500000 0.852070 0.500000 -0.159462
N2    N     N_R   0.500000 0.147930 0.500000 -0.161005
O1    O     O_R   0.319640 0.618740 0.499990 -0.593180
O2    O     O_R   0.680360 0.381260 0.500010 -0.591876
O3    O     O_R   0.680360 0.618740 0.500010 -0.595627
O4    O     O_R   0.319640 0.381260 0.499990 -0.593513
O5    O     O_R   0.499970 0.618800 0.370260 -0.583342
O6    O     O_R   0.500030 0.381200 0.629740 -0.579280
O7    O     O_R   0.500030 0.618800 0.629740 -0.581515
O8    O     O_R   0.499970 0.381200 0.370260 -0.577808
C31   C     C_3   0.237116 0.468717 0.792951 -0.454955
C32   C     C_3   0.219405 0.462962 0.695312 -0.822922
H13   H     H_    0.250149 0.563949 0.664556 0.255731
H14   H     H_    0.267814 0.370133 0.665744 0.272572
H15   H     H_    0.119355 0.450084 0.685291 0.242581
H16   H     H_    0.197364 0.369450 0.821664 0.224733
H17   H     H_    0.179767 0.558216 0.818918 0.215026
C33   C     C_3   0.762808 0.527231 0.207270 -0.464988
C34   C     C_3   0.781586 0.523757 0.304759 -0.818689
H18   H     H_    0.737216 0.617028 0.336840 0.268010
H19   H     H_    0.747005 0.422605 0.333272 0.258810
H20   H     H_    0.882271 0.529983 0.314326 0.248491
H21   H     H_    0.819323 0.439206 0.178016 0.225913
H22   H     H_    0.802539 0.628518 0.182058 0.201787
O9    O     O_3   0.173577 0.479869 0.124992 -0.616696
C35   C     C_3   0.112114 0.611578 0.129245 0.038059
H23   H     H_    0.011860 0.590934 0.125759 0.157644
H24   H     H_    0.138875 0.684522 0.073146 0.120797
C36   C     C_3   0.133160 0.683781 0.217393 -0.350460
H25   H     H_    0.108852 0.610171 0.273076 0.229380
H26   H     H_    0.232376 0.712653 0.219172 0.213265
C37   C     C_3   0.055533 0.816991 0.229929 -0.910991
H27   H     H_    0.078673 0.892575 0.175211 0.259783
H28   H     H_    0.075126 0.867380 0.293620 0.252520
H29   H     H_    0.955414 0.791339 0.231722 0.257810
O10   O     O_3   0.823950 0.538272 0.873413 -0.618427
C38   C     C_3   0.889357 0.665304 0.884340 0.033023
H30   H     H_    0.969097 0.643448 0.925008 0.144411
H31   H     H_    0.831843 0.750310 0.917227 0.133336
C39   C     C_3   0.936984 0.719177 0.793053 -0.331588
H32   H     H_    0.988247 0.634200 0.756342 0.236146
H33   H     H_    0.856981 0.749429 0.754672 0.210558
C40   C     C_3   0.022124 0.845979 0.800188 -0.919199
H34   H     H_    0.971608 0.933720 0.834779 0.260035
H35   H     H_    0.054915 0.881910 0.732786 0.258173
H36   H     H_    0.103888 0.817342 0.837071 0.253402

loop_
_geom_bond_atom_site_label_1
_geom_bond_atom_site_label_2
_ccdc_geom_bond_type
C31   C32   S    
C34   H19   S    
C5    H5    S    
C36   H26   S    
C36   H25   S    
C39   C40   S    
C40   H34   S    
C4    C27   A    
C6    C9    A    
C38   H30   S    
C33   H21   S    
C23   C29   A    
C3    C28   A    
C3    O9    S    
C24   C26   A    
C4    O10   S    
C13   N2    A    
O10   C38   S    
C11   C14   A    
C32   H13   S    
C3    C29   A    
C16   O7    A    
Cu2   O6    S    
C12   H10   S    
C39   H32   S    
C6    H6    S    
C35   H23   S    
C15   O5    A    
C1    O4    A    
C34   H20   S    
Cu1   O1    S    
C31   H16   S    
Cu2   O2    S    
C17   H1    S    
Cu1   O3    S    
Cu2   O8    S    
C38   H31   S    
C14   N1    A    
C5    C7    A    
C15   C20   S    
C17   C27   A    
C15   O8    A    
C18   C28   A    
C37   H27   S    
Cu1   O5    S    
C21   C31   S    
C1    O1    A    
C6    C8    A    
C2    O2    A    
C25   C26   A    
C33   C34   S    
C2    O3    A    
C22   C33   S    
Cu1   Cu2   S    
C35   C36   S    
Cu1   O7    S    
C18   H2    S    
Cu2   O4    S    
C20   C22   A    
C21   C23   A    
C36   C37   S    
C22   C24   A    
C13   H11   S    
C38   C39   S    
C14   H12   S    
C7    C9    A    
C19   C21   A    
Cu2   N2    S    
C1    C10   S    
C16   O6    A    
C37   H28   S    
C12   N1    A    
C30   H4    S    
C25   C27   A    
C29   H3    S    
C26   C28   A    
C32   H15   S    
C33   H22   S    
C40   H35   S    
C5    C10   A    
C16   C19   S    
C31   H17   S    
C17   C19   A    
C32   H14   S    
C11   H9    S    
C18   C20   A    
C23   C25   A    
O9    C35   S    
C24   C30   A    
C34   H18   S    
C37   H29   S    
C12   C13   A    
C8    C10   A    
Cu1   N1    S    
C40   H36   S    
C7    H7    S    
C39   H33   S    
C11   N2    A    
C35   H24   S    
C8    H8    S    
C2    C9    S    
C4    C30   A    
