data_str_m2_o16_o16_f0_pcu.sym.103
_audit_creation_date              2012-12-10T17:31:17-0500
_audit_creation_method            fapswitch 2.2
_symmetry_space_group_name_H-M    P1
_symmetry_Int_Tables_number       1
_space_group_crystal_system       triclinic
_cell_length_a                    19.13891
_cell_length_b                    18.49015
_cell_length_c                    12.360041
_cell_angle_alpha                 90.372475
_cell_angle_beta                  128.669707
_cell_angle_gamma                 89.391278
_cell_volume                      3414.84557479

loop_
_atom_site_label
_atom_site_type_symbol
_atom_type_description
_atom_site_fract_x
_atom_site_fract_y
_atom_site_fract_z
_atom_type_partial_charge
C1    C     C_R   0.611984 0.897674 0.652879 0.784661
C2    C     C_R   0.607175 0.104657 0.647422 0.790727
C3    C     C_R   0.110667 0.397002 0.650954 0.789776
C4    C     C_R   0.106880 0.604898 0.647267 0.799776
C5    C     C_R   0.242290 0.772908 0.044336 0.050920
C6    C     C_R   0.239042 0.219811 0.032230 0.051912
C7    C     C_R   0.743875 0.272830 0.043744 0.051434
C8    C     C_R   0.737147 0.717114 0.029424 0.051510
C9    C     C_R   0.685269 0.246336 0.068281 0.012389
C10   C     C_R   0.660581 0.725490 0.022767 -0.027768
C11   C     C_R   0.185217 0.745418 0.071044 0.022017
C12   C     C_R   0.165239 0.231892 0.031786 -0.023973
C13   C     C_R   0.610926 0.206463 0.965321 -0.218181
C14   C     C_R   0.586840 0.764318 0.912707 -0.221314
C15   C     C_R   0.112271 0.703542 0.970598 -0.225000
C16   C     C_R   0.091494 0.271233 0.923433 -0.215697
C17   C     C_R   0.597543 0.188470 0.845578 -0.191633
C18   C     C_R   0.588412 0.795281 0.812761 -0.179435
C19   C     C_R   0.098183 0.685564 0.850211 -0.199522
C20   C     C_R   0.090178 0.298926 0.818835 -0.177133
C21   C     C_R   0.311265 0.819207 0.142527 -0.346352
C22   C     C_R   0.312626 0.180575 0.142785 -0.311514
C23   C     C_R   0.812133 0.319554 0.142033 -0.341979
C24   C     C_R   0.811825 0.680380 0.143223 -0.315839
C25   C     C_R   0.259506 0.819126 0.279151 0.394090
C26   C     C_R   0.244021 0.170560 0.253847 0.384403
C27   C     C_R   0.762158 0.316572 0.281169 0.399716
C28   C     C_R   0.737637 0.663331 0.243938 0.382948
C29   C     C_R   0.658872 0.170858 0.720531 -0.157396
C30   C     C_R   0.674751 0.837289 0.738276 -0.159511
C31   C     C_R   0.156638 0.672188 0.719475 -0.155240
C32   C     C_R   0.171252 0.335328 0.732383 -0.158023
C33   C     C_R   0.678748 0.026403 0.278002 0.260341
C34   C     C_R   0.182448 0.497039 0.278951 0.304586
C35   C     C_R   0.344649 0.998605 0.628271 0.106015
C36   C     C_R   0.844702 0.499420 0.628564 0.098745
C37   C     C_R   0.309048 0.001114 0.699450 0.086031
C38   C     C_R   0.809573 0.498656 0.700346 0.089694
C39   C     C_R   0.385447 0.100281 0.344587 0.829472
C40   C     C_R   0.385450 0.900268 0.344171 0.859891
C41   C     C_R   0.884649 0.599626 0.343660 0.832158
C42   C     C_R   0.885949 0.399886 0.344681 0.862557
C43   C     C_R   0.367839 0.004401 0.844813 -0.301743
C44   C     C_R   0.868805 0.499396 0.845809 -0.292830
C45   C     C_R   0.460955 0.006469 0.919783 0.008481
C46   C     C_R   0.962019 0.499764 0.920401 0.004547
C47   C     C_R   0.492861 0.004463 0.841032 0.247307
C48   C     C_R   0.993332 0.499689 0.840965 0.247978
C49   C     C_R   0.523877 0.010617 0.069664 -0.056788
C50   C     C_R   0.025547 0.499590 0.070389 -0.067507
C51   C     C_R   0.615337 0.020792 0.133420 0.008973
C52   C     C_R   0.117943 0.497673 0.134404 0.031266
C53   C     C_R   0.644442 0.017943 0.054289 -0.254057
C54   C     C_R   0.145952 0.495459 0.053904 -0.243502
C55   C     C_R   0.585176 0.007278 0.913131 -0.153900
C56   C     C_R   0.085520 0.498347 0.911981 -0.163055
C57   C     C_R   0.501274 0.004432 0.160209 -0.050248
C58   C     C_R   0.002173 0.500425 0.160176 -0.043854
C59   C     C_R   0.655167 0.004759 0.359409 0.314053
C60   C     C_R   0.156098 0.498722 0.362133 0.284226
C61   C     C_R   0.697935 0.264665 0.190808 0.287066
C62   C     C_R   0.660574 0.696671 0.128868 0.386341
C63   C     C_R   0.197526 0.765116 0.192664 0.283565
C64   C     C_R   0.167552 0.205687 0.141569 0.390997
C65   C     C_R   0.317974 0.844871 0.255097 -0.163746
C66   C     C_R   0.314519 0.153284 0.249770 -0.240975
C67   C     C_R   0.819266 0.343982 0.255759 -0.164517
C68   C     C_R   0.811759 0.650772 0.246594 -0.241010
C69   C     C_R   0.707515 0.201878 0.683672 -0.195587
C70   C     C_R   0.749143 0.826904 0.743002 -0.183157
C71   C     C_R   0.201101 0.707115 0.678395 -0.200833
C72   C     C_R   0.240185 0.320501 0.725406 -0.171601
C73   C     C_R   0.258914 0.764472 0.755473 0.187875
C74   C     C_R   0.306155 0.268728 0.811698 0.211157
C75   C     C_R   0.768856 0.256725 0.763511 0.188721
C76   C     C_R   0.813781 0.773981 0.826794 0.211952
C77   C     C_R   0.275415 0.784899 0.878857 -0.225891
C78   C     C_R   0.305678 0.234664 0.912098 -0.252450
C79   C     C_R   0.783519 0.279299 0.884767 -0.227707
C80   C     C_R   0.808523 0.735750 0.918422 -0.254393
C81   C     C_R   0.731805 0.251666 0.921453 0.096157
C82   C     C_R   0.738212 0.748346 0.925245 0.101640
C83   C     C_R   0.228460 0.752997 0.920372 0.096688
C84   C     C_R   0.237853 0.249126 0.924226 0.100008
C85   C     C_R   0.662642 0.202485 0.829150 0.082344
C86   C     C_R   0.666261 0.793982 0.824113 0.087259
C87   C     C_R   0.161180 0.702124 0.830192 0.082698
C88   C     C_R   0.165744 0.294873 0.824178 0.084684
Cu1   Cu    Cu3+1 0.526340 0.000000 0.421010 0.940399
Cu2   Cu    Cu3+1 0.026340 0.500000 0.421010 0.933299
Cu3   Cu    Cu3+1 0.473640 0.000000 0.578990 0.935760
Cu4   Cu    Cu3+1 0.973640 0.500000 0.578990 0.934844
H1    H     H_    0.714835 0.019484 0.101863 0.174819
H2    H     H_    0.215925 0.491682 0.099541 0.175576
H3    H     H_    0.432506 0.000320 0.119005 0.146699
H4    H     H_    0.933199 0.501490 0.118767 0.146961
H5    H     H_    0.301262 0.996306 0.516586 0.185042
H6    H     H_    0.801096 0.499235 0.516775 0.184340
H7    H     H_    0.339078 0.006675 0.897077 0.143921
H8    H     H_    0.840230 0.498859 0.898326 0.142629
H9    H     H_    0.615292 0.001261 0.864688 0.210418
H10   H     H_    0.115094 0.499189 0.862521 0.213675
H11   H     H_    0.560274 0.190526 0.973500 0.156921
H12   H     H_    0.527969 0.773660 0.904516 0.163962
H13   H     H_    0.062693 0.686656 0.980640 0.156658
H14   H     H_    0.034312 0.282763 0.918928 0.165054
H15   H     H_    0.360466 0.836901 0.132768 0.189400
H16   H     H_    0.370480 0.170645 0.149044 0.186754
H17   H     H_    0.860203 0.338966 0.131216 0.188952
H18   H     H_    0.872475 0.674788 0.155644 0.186393
H19   H     H_    0.697140 0.183254 0.591562 0.172989
H20   H     H_    0.758147 0.861606 0.684172 0.164186
H21   H     H_    0.189296 0.690468 0.584423 0.177006
H22   H     H_    0.242928 0.350865 0.653832 0.163301
H23   H     H_    0.320645 0.829242 0.934988 0.127849
H24   H     H_    0.358557 0.195866 0.977060 0.133020
H25   H     H_    0.832387 0.321054 0.943806 0.129694
H26   H     H_    0.859829 0.695447 0.981276 0.132783
H27   H     H_    0.532913 0.166215 0.764667 0.179420
H28   H     H_    0.526876 0.819573 0.726000 0.176263
H29   H     H_    0.033616 0.662714 0.770739 0.183203
H30   H     H_    0.027827 0.322673 0.732964 0.180673
N1    N     N_R   0.566260 0.000000 0.302220 -0.216334
N2    N     N_R   0.066260 0.500000 0.302220 -0.220770
N3    N     N_R   0.434410 0.000000 0.697680 -0.243904
N4    N     N_R   0.934410 0.500000 0.697680 -0.243320
O1    O     O_R   0.608610 0.924520 0.551740 -0.579421
O2    O     O_R   0.608610 0.075480 0.551740 -0.571542
O3    O     O_R   0.108610 0.424520 0.551740 -0.600057
O4    O     O_R   0.108610 0.575480 0.551740 -0.582722
O5    O     O_R   0.564110 0.924510 0.685150 -0.605634
O6    O     O_R   0.564110 0.075490 0.685150 -0.615361
O7    O     O_R   0.064110 0.424510 0.685150 -0.605912
O8    O     O_R   0.064110 0.575490 0.685150 -0.616722
O9    O     O_R   0.435880 0.075470 0.314850 -0.584907
O10   O     O_R   0.435880 0.924530 0.314850 -0.596608
O11   O     O_R   0.935880 0.575470 0.314850 -0.584233
O12   O     O_R   0.935880 0.424530 0.314850 -0.595193
O13   O     O_R   0.391380 0.075460 0.448260 -0.586594
O14   O     O_R   0.391380 0.924540 0.448260 -0.533463
O15   O     O_R   0.891380 0.575460 0.448260 -0.588553
O16   O     O_R   0.891380 0.424540 0.448260 -0.531446
O17   O     O_3   0.265026 0.846650 0.388560 -0.740300
H31   H     H_    0.212796 0.831179 0.381027 0.357102
O18   O     O_3   0.245394 0.151037 0.362518 -0.695082
H32   H     H_    0.304599 0.164884 0.449019 0.325542
O19   O     O_3   0.771364 0.340417 0.395813 -0.736730
H33   H     H_    0.721618 0.322447 0.392634 0.359519
O20   O     O_3   0.736300 0.640864 0.348627 -0.697325
H34   H     H_    0.792731 0.657419 0.437027 0.324969
O21   O     O_3   0.766629 0.045209 0.343415 -0.742081
H35   H     H_    0.766865 0.083072 0.287250 0.326104
O22   O     O_3   0.272620 0.493604 0.342093 -0.740401
H36   H     H_    0.285764 0.534996 0.306892 0.317011
C89   C     C_3   0.209393 0.000953 0.626735 -0.424866
C90   C     C_3   0.148155 0.997630 0.468480 -0.802857
H37   H     H_    0.158406 0.045545 0.426231 0.288726
H38   H     H_    0.160735 0.947181 0.433677 0.248545
H39   H     H_    0.077265 0.997743 0.426836 0.251736
H40   H     H_    0.194385 0.953831 0.664399 0.207510
H41   H     H_    0.192234 0.050783 0.656779 0.225347
C91   C     C_3   0.710065 0.496576 0.628242 -0.427994
C92   C     C_3   0.648590 0.493266 0.469972 -0.797472
H42   H     H_    0.656590 0.542320 0.427361 0.288449
H43   H     H_    0.663107 0.443941 0.435113 0.253060
H44   H     H_    0.577869 0.491007 0.428816 0.250867
H45   H     H_    0.696571 0.448364 0.665786 0.211475
H46   H     H_    0.691770 0.545415 0.658874 0.222187
O23   O     O_3   0.647556 0.234206 0.223462 -0.765798
H47   H     H_    0.637428 0.182734 0.195289 0.321691
O24   O     O_3   0.587441 0.701666 0.126058 -0.689715
H48   H     H_    0.533030 0.691733 0.030322 0.308803
O25   O     O_3   0.148986 0.733955 0.228119 -0.775538
H49   H     H_    0.141721 0.681893 0.204068 0.318097
O26   O     O_3   0.097344 0.215117 0.145052 -0.687818
H50   H     H_    0.041083 0.204516 0.051556 0.308216
C93   C     C_3   0.300153 0.806347 0.703661 -0.397899
C94   C     C_3   0.346458 0.757523 0.665412 -0.809385
H51   H     H_    0.389003 0.716210 0.746864 0.239504
H52   H     H_    0.296329 0.730501 0.565035 0.265874
H53   H     H_    0.388174 0.790996 0.652098 0.266138
H54   H     H_    0.246705 0.837920 0.610912 0.218191
H55   H     H_    0.350089 0.845471 0.783288 0.209185
C95   C     C_3   0.381484 0.250674 0.806470 -0.407806
C96   C     C_3   0.373670 0.284820 0.686729 -0.831095
H56   H     H_    0.308916 0.270489 0.585767 0.269420
H57   H     H_    0.380001 0.344511 0.698726 0.249291
H58   H     H_    0.428351 0.264419 0.686841 0.241829
H59   H     H_    0.445088 0.268754 0.905417 0.220190
H60   H     H_    0.384936 0.190955 0.798806 0.204958
C97   C     C_3   0.816252 0.292944 0.716515 -0.400988
C98   C     C_3   0.860704 0.238495 0.682379 -0.795572
H61   H     H_    0.906106 0.201533 0.771256 0.239635
H62   H     H_    0.810255 0.206283 0.589047 0.259892
H63   H     H_    0.899334 0.268000 0.658113 0.260863
H64   H     H_    0.766598 0.325666 0.622853 0.221899
H65   H     H_    0.868226 0.330666 0.797166 0.203822
C99   C     C_3   0.892174 0.758616 0.827684 -0.395693
C100  C     C_3   0.889054 0.796960 0.715235 -0.856537
H66   H     H_    0.825924 0.784249 0.610796 0.257139
H67   H     H_    0.895332 0.856344 0.732453 0.251243
H68   H     H_    0.945857 0.778316 0.719225 0.250599
H69   H     H_    0.954627 0.774402 0.930562 0.223747
H70   H     H_    0.895277 0.699397 0.814522 0.200366
C101  C     C_3   0.728834 0.967631 0.493548 -0.315596
C102  C     C_3   0.775150 0.015004 0.622920 -0.732187
H71   H     H_    0.771457 0.072958 0.596915 0.253046
H72   H     H_    0.746335 0.006638 0.676368 0.249873
H73   H     H_    0.846945 0.999398 0.697941 0.213103
H74   H     H_    0.703179 0.916504 0.499411 0.186685
H75   H     H_    0.781892 0.947849 0.488529 0.208392
C103  C     C_3   0.231690 0.501618 0.517830 -0.303111
C104  C     C_3   0.283494 0.572497 0.561198 -0.835008
H76   H     H_    0.237837 0.617179 0.493285 0.248540
H77   H     H_    0.314097 0.585514 0.670432 0.236609
H78   H     H_    0.338352 0.568419 0.554047 0.277453
H79   H     H_    0.210703 0.496193 0.580909 0.241053
H80   H     H_    0.278370 0.455381 0.548941 0.194300

loop_
_geom_bond_atom_site_label_1
_geom_bond_atom_site_label_2
_ccdc_geom_bond_type
C83   C87   A    
O24   H48   S    
Cu1   O9    S    
C42   O12   A    
C44   H8    S    
O23   H47   S    
C14   C18   A    
C53   C55   A    
Cu4   O8    S    
C92   H42   S    
C48   C56   A    
C94   H53   S    
C96   H57   S    
C22   H16   S    
O18   H32   S    
C2    O2    A    
C99   H70   S    
C82   C86   A    
C32   C72   A    
C39   O9    A    
C101  C102  S    
C89   H41   S    
C15   C19   A    
C62   O24   S    
C40   O10   A    
C18   C86   A    
C2    C29   S    
C9    C61   A    
C25   O17   S    
C4    O8    A    
C90   H37   S    
C92   H43   S    
C28   O20   S    
C43   H7    S    
C5    C11   A    
C19   C87   A    
C6    C12   A    
C12   C64   A    
Cu1   Cu3   S    
C102  H72   S    
C104  H78   S    
Cu3   O5    S    
C103  H79   S    
C101  H75   S    
C93   H54   S    
C6    C22   A    
C72   H22   S    
C49   C57   A    
C95   C96   S    
C71   H21   S    
C60   N2    A    
C25   C63   A    
C36   H6    S    
C23   C67   A    
C35   N3    A    
C26   C64   A    
C97   H64   S    
C22   C66   A    
C9    C13   A    
C27   C61   A    
O19   H33   S    
C30   C70   A    
Cu2   O3    S    
C11   C15   A    
Cu4   O7    S    
C44   C46   A    
C49   C51   A    
C42   O16   A    
C100  H68   S    
C50   C52   A    
O21   H35   S    
C47   N3    A    
C99   C100  S    
C45   C49   A    
C30   C86   A    
Cu4   O16   S    
C29   C85   A    
C16   H14   S    
C73   C93   S    
C59   C101  S    
C31   C71   A    
C100  H66   S    
C33   C59   A    
Cu1   O10   S    
O25   H49   S    
C34   C60   A    
C1    O1    A    
C10   C62   A    
C37   C89   S    
C24   H18   S    
C21   C65   A    
Cu2   O12   S    
C52   C54   A    
C63   O25   S    
C41   C68   S    
C29   C69   A    
C45   C47   A    
C59   N1    A    
Cu2   Cu4   S    
C23   H17   S    
C46   C48   A    
C6    C84   A    
C53   H1    S    
C97   C98   S    
C26   C66   A    
C98   H63   S    
C12   C16   A    
C61   O23   S    
C92   H44   S    
C31   C87   A    
C72   C74   A    
C10   C14   A    
C80   H26   S    
C79   C81   A    
C35   H5    S    
C24   C68   A    
C102  H71   S    
C96   H58   S    
C4    O4    A    
Cu3   O6    S    
Cu1   N1    S    
C93   H55   S    
C13   H11   S    
C14   H12   S    
C91   H45   S    
C3    O7    A    
C98   H62   S    
C37   C43   A    
C36   N4    A    
C75   C97   S    
C5    C83   A    
C38   C44   A    
C57   N1    A    
C43   C45   A    
C2    O6    A    
O26   H50   S    
C104  H76   S    
C16   C20   A    
C50   C58   A    
C5    C21   A    
C64   O26   S    
Cu4   O15   S    
C60   C103  S    
C8    C82   A    
C21   H15   S    
C70   H20   S    
Cu3   O13   S    
C80   C82   A    
C7    C81   A    
C40   C65   S    
C33   O21   S    
C42   C67   S    
C58   H4    S    
C39   C66   S    
C17   C85   A    
C76   C80   A    
C69   C75   A    
C18   H28   S    
C99   H69   S    
Cu2   O11   S    
C35   C37   A    
C47   C55   A    
C91   C92   S    
Cu1   O1    S    
C34   O22   S    
C57   H3    S    
C41   O11   A    
C7    C9    A    
C55   H9    S    
C19   H29   S    
C73   C77   A    
Cu3   N3    S    
C28   C68   A    
C89   H40   S    
C3    O3    A    
Cu2   N2    S    
C90   H39   S    
C78   H24   S    
C97   H65   S    
C26   O18   S    
C58   N2    A    
C1    O5    A    
Cu4   N4    S    
C94   H52   S    
C54   C56   A    
C33   C51   A    
C41   O15   A    
C46   C50   A    
C34   C52   A    
C20   H30   S    
C13   C17   A    
C98   H61   S    
C15   H13   S    
C90   H38   S    
C104  H77   S    
C56   H10   S    
C27   O19   S    
C76   C99   S    
O20   H34   S    
C70   C76   A    
C69   H19   S    
C102  H73   S    
C96   H56   S    
C84   C88   A    
C103  H80   S    
C101  H74   S    
C7    C23   A    
C20   C88   A    
C36   C38   A    
C1    C30   S    
C8    C24   A    
C40   O14   A    
C95   H60   S    
C3    C32   S    
C54   H2    S    
C4    C31   S    
C27   C67   A    
C17   H27   S    
C48   N4    A    
Cu3   O14   S    
Cu2   O4    S    
C78   C84   A    
C38   C91   S    
C74   C95   S    
C103  C104  S    
C8    C10   A    
C93   C94   S    
C74   C78   A    
C71   C73   A    
C89   C90   S    
C100  H67   S    
C25   C65   A    
C77   C83   A    
C91   H46   S    
C79   H25   S    
C51   C53   A    
O22   H36   S    
C77   H23   S    
C11   C63   A    
C75   C79   A    
C95   H59   S    
C39   O13   A    
C81   C85   A    
O17   H31   S    
C28   C62   A    
C94   H51   S    
Cu1   O2    S    
C32   C88   A    
