data_str_m9_o5_o16_f0_sra.sym.54
_audit_creation_date              2012-12-11T17:14:07-0500
_audit_creation_method            fapswitch 2.2
_symmetry_space_group_name_H-M    P1
_symmetry_Int_Tables_number       1
_space_group_crystal_system       triclinic
_cell_length_a                    18.189881
_cell_length_b                    7.100137
_cell_length_c                    13.204081
_cell_angle_alpha                 90.004048
_cell_angle_beta                  71.128898
_cell_angle_gamma                 90.002221
_cell_volume                      1613.65251924

loop_
_atom_site_label
_atom_site_type_symbol
_atom_type_description
_atom_site_fract_x
_atom_site_fract_y
_atom_site_fract_z
_atom_type_partial_charge
O1    O     O_R   0.453880 0.506200 0.150010 -0.539521
O2    O     O_R   0.546120 0.006200 0.849990 -0.539518
O3    O     O_R   0.604080 0.177770 0.007280 -0.538894
O4    O     O_R   0.395920 0.677770 0.992720 -0.538883
C1    C     C_R   0.635809 0.344551 0.002342 0.725033
C2    C     C_R   0.364191 0.844548 0.997654 0.724995
O5    O     O_R   0.458010 0.176640 0.159130 -0.542632
O6    O     O_R   0.541990 0.676640 0.840870 -0.542614
O7    O     O_R   0.399010 0.004010 0.002930 -0.538620
O8    O     O_R   0.600990 0.504010 0.997070 -0.538617
C3    C     C_R   0.441904 0.344920 0.201205 0.687490
C4    C     C_R   0.558083 0.844915 0.798788 0.687411
O9    O     O_3   0.480810 0.338440 0.948570 -0.374980
O10   O     O_3   0.519190 0.838440 0.051430 -0.374987
V1    V     V_3+5 0.503560 0.064490 0.009540 1.414242
V2    V     V_3+5 0.496440 0.564490 0.990460 1.414298
C5    C     C_R   0.584987 0.826716 0.505624 -0.167540
C6    C     C_R   0.415025 0.327164 0.494347 -0.167579
H1    H     H_    0.486847 0.826496 0.649255 0.109388
H2    H     H_    0.513159 0.327237 0.350712 0.109371
H3    H     H_    0.664115 0.811497 0.298997 0.124140
H4    H     H_    0.335931 0.312033 0.700981 0.124141
H5    H     H_    0.548751 0.814474 0.454934 0.123118
H6    H     H_    0.451275 0.315254 0.545032 0.123129
C7    C     C_R   0.594876 0.850739 0.682885 -0.030114
C8    C     C_R   0.405106 0.350754 0.317101 -0.030040
C9    C     C_R   0.960177 0.884893 0.379991 -0.082484
C10   C     C_R   0.039841 0.384502 0.620053 -0.083057
C11   C     C_R   0.928249 0.872067 0.491023 0.653006
C12   C     C_R   0.071708 0.371039 0.509030 0.653342
C13   C     C_R   0.847889 0.861470 0.540230 -0.272361
C14   C     C_R   0.152067 0.360376 0.459786 -0.272902
C15   C     C_R   0.796485 0.851730 0.479797 0.003183
C16   C     C_R   0.203504 0.351153 0.520202 0.002947
C17   C     C_R   0.829284 0.846554 0.366397 0.057018
C18   C     C_R   0.170736 0.346315 0.633610 0.057021
C19   C     C_R   0.713729 0.847518 0.527839 0.114175
C20   C     C_R   0.286261 0.347179 0.472147 0.114147
C21   C     C_R   0.666249 0.832623 0.461082 0.139755
C22   C     C_R   0.333761 0.332718 0.538897 0.139823
C23   C     C_R   0.699962 0.823219 0.350259 -0.215430
C24   C     C_R   0.300070 0.323450 0.649725 -0.215441
C25   C     C_R   0.779943 0.830772 0.303542 -0.156521
C26   C     C_R   0.220091 0.330860 0.696457 -0.156605
C27   C     C_R   0.676011 0.857953 0.639743 -0.224167
C28   C     C_R   0.323962 0.357552 0.360244 -0.224539
C29   C     C_R   0.549582 0.834503 0.615943 -0.176156
C30   C     C_R   0.450417 0.334938 0.384030 -0.176166
C31   C     C_R   0.910817 0.863314 0.317439 -0.190056
C32   C     C_R   0.089219 0.363166 0.682580 -0.190176
H7    H     H_    0.707648 0.869478 0.695804 0.090950
H8    H     H_    0.292306 0.368769 0.304200 0.091100
H9    H     H_    0.827627 0.865958 0.625999 0.136946
H10   H     H_    0.172303 0.364479 0.374007 0.137477
H11   H     H_    0.802590 0.825569 0.217042 0.119677
H12   H     H_    0.197457 0.325872 0.782964 0.119599
C33   C     C_1   0.216574 0.858473 0.998975 -0.168859
C34   C     C_1   0.783428 0.358469 0.001017 -0.168872
C35   C     C_1   0.283934 0.852419 0.997747 -0.191361
C36   C     C_1   0.716067 0.352423 0.002246 -0.191504
O11   O     O_R   0.899030 0.205490 0.002790 -0.536374
O12   O     O_R   0.100970 0.705490 0.997210 -0.536347
O13   O     O_R   0.042000 0.536370 0.840840 -0.552149
O14   O     O_R   0.958000 0.036370 0.159160 -0.552101
C37   C     C_R   0.055890 0.368487 0.798972 0.715505
C38   C     C_R   0.944152 0.868503 0.201038 0.715341
O15   O     O_R   0.895930 0.535070 0.992690 -0.543488
O16   O     O_R   0.104070 0.035070 0.007310 -0.543623
O17   O     O_R   0.953870 0.707520 0.150040 -0.534441
O18   O     O_R   0.046130 0.207520 0.849960 -0.534478
C39   C     C_R   0.864053 0.366690 0.999224 0.737258
C40   C     C_R   0.135949 0.866694 0.000767 0.737079
O19   O     O_3   0.019200 0.374340 0.051340 -0.379754
O20   O     O_3   0.980800 0.874340 0.948660 -0.379768
V3    V     V_3+5 0.996440 0.648350 0.990470 1.418563
V4    V     V_3+5 0.003560 0.148350 0.009530 1.418483
C41   C     C_R   0.044591 0.928107 0.331372 0.094133
C42   C     C_R   0.100796 0.806150 0.346425 -0.057051
C43   C     C_R   0.179892 0.848500 0.303686 -0.145856
C44   C     C_R   0.203709 0.013863 0.245097 -0.117628
C45   C     C_R   0.148434 0.136553 0.229190 -0.138592
C46   C     C_R   0.069275 0.096099 0.273991 -0.020018
H13   H     H_    0.083230 0.679560 0.392020 0.183934
H14   H     H_    0.222636 0.753311 0.316249 0.117522
H15   H     H_    0.264914 0.047247 0.212319 0.117380
H16   H     H_    0.166857 0.265628 0.184556 0.114163
H17   H     H_    0.027416 0.198166 0.265837 0.163934
C47   C     C_R   0.955526 0.428624 0.668728 0.093664
C48   C     C_R   0.899013 0.306608 0.654621 -0.058161
C49   C     C_R   0.820010 0.349790 0.697584 -0.145868
C50   C     C_R   0.796606 0.515991 0.755487 -0.117922
C51   C     C_R   0.852197 0.638648 0.770541 -0.137333
C52   C     C_R   0.931253 0.597337 0.725513 -0.019225
H18   H     H_    0.916242 0.179201 0.609728 0.184142
H19   H     H_    0.777010 0.254525 0.685791 0.117339
H20   H     H_    0.735473 0.549987 0.788457 0.117340
H21   H     H_    0.834096 0.768306 0.814707 0.113961
H22   H     H_    0.973373 0.699202 0.733100 0.163920
F1    F     F_    0.975214 0.880502 0.552564 -0.724968
F2    F     F_    0.024712 0.379184 0.447524 -0.724248

loop_
_geom_bond_atom_site_label_1
_geom_bond_atom_site_label_2
_ccdc_geom_bond_type
C12   C14   A    
O13   C37   A    
C28   H8    S    
C9    C11   A    
O19   V3    S    
O1    C3    A    
O2    C4    A    
C2    O7    A    
C45   C46   A    
O3    V1    S    
C49   H19   S    
C21   C23   A    
C41   C42   A    
O5    C3    A    
C5    H5    S    
O20   V4    S    
C6    H6    S    
C43   H14   S    
H1    C29   S    
C34   C39   S    
C33   C35   T    
C38   O17   A    
C27   H7    S    
C34   C36   T    
C46   H17   S    
C12   F2    S    
C5    C21   A    
C48   H18   S    
C6    C22   A    
C50   H20   S    
C10   C32   A    
C42   H13   S    
C10   C47   S    
C13   C15   A    
C17   C25   A    
C7    C29   A    
O15   C39   A    
C45   H16   S    
C8    C30   A    
O11   C39   A    
O5    V1    S    
O6    V2    S    
C23   C25   A    
C24   C26   A    
C14   H10   S    
C51   H21   S    
O11   V4    S    
O20   V3    S    
C11   F1    S    
O4    C2    A    
C31   C38   S    
C50   C51   A    
C42   C43   A    
C3    C8    S    
O3    C1    A    
C15   C19   A    
O16   C40   A    
C14   C16   A    
O4    V2    S    
C17   C31   A    
C44   H15   S    
C26   H12   S    
O6    C4    A    
O14   V4    S    
O12   C40   A    
O1    V2    S    
C13   H9    S    
O2    V1    S    
H2    C30   S    
H3    C23   S    
C25   H11   S    
O18   V4    S    
O19   V4    S    
O12   V3    S    
C18   C26   A    
O15   V3    S    
C19   C27   A    
C7    C27   A    
C18   C32   A    
C47   C52   A    
C1    C36   S    
C16   C20   A    
C2    C35   S    
C5    C29   A    
C44   C45   A    
C9    C41   S    
C6    C30   A    
O16   V4    S    
C4    C7    S    
C10   C12   A    
O7    V1    S    
C1    O8    A    
C11   C13   A    
O8    V2    S    
C20   C22   A    
C49   C50   A    
H4    C24   S    
O13   V3    S    
C41   C46   A    
C22   C24   A    
C51   C52   A    
C15   C17   A    
O17   V3    S    
C16   C18   A    
C33   C40   S    
C32   C37   S    
C20   C28   A    
C8    C28   A    
C43   C44   A    
C9    C31   A    
C47   C48   A    
C19   C21   A    
O9    V2    S    
O10   V1    S    
C48   C49   A    
C52   H22   S    
C37   O18   A    
O14   C38   A    
