data_str_m2_o16_o16_f0_pcu.sym.188
_audit_creation_date              2012-12-10T17:31:23-0500
_audit_creation_method            fapswitch 2.2
_symmetry_space_group_name_H-M    P1
_symmetry_Int_Tables_number       1
_space_group_crystal_system       triclinic
_cell_length_a                    18.85448
_cell_length_b                    18.691386
_cell_length_c                    12.359623
_cell_angle_alpha                 89.831501
_cell_angle_beta                  129.008382
_cell_angle_gamma                 90.346171
_cell_volume                      3384.57570741

loop_
_atom_site_label
_atom_site_type_symbol
_atom_type_description
_atom_site_fract_x
_atom_site_fract_y
_atom_site_fract_z
_atom_type_partial_charge
C1    C     C_R   0.614629 0.900135 0.655792 0.834841
C2    C     C_R   0.617342 0.097576 0.659093 0.812882
C3    C     C_R   0.114623 0.400130 0.655785 0.834748
C4    C     C_R   0.117346 0.597573 0.659100 0.812874
C5    C     C_R   0.257733 0.758104 0.060360 0.022148
C6    C     C_R   0.265753 0.248392 0.073431 0.016801
C7    C     C_R   0.757742 0.258098 0.060356 0.022153
C8    C     C_R   0.765733 0.748374 0.073398 0.016865
C9    C     C_R   0.668558 0.274312 0.012387 0.150035
C10   C     C_R   0.682379 0.745646 0.052008 0.150649
C11   C     C_R   0.168537 0.774374 0.012296 0.150042
C12   C     C_R   0.182421 0.245703 0.052109 0.150722
C13   C     C_R   0.592035 0.251736 0.881302 -0.221892
C14   C     C_R   0.602334 0.771120 0.928681 -0.216453
C15   C     C_R   0.092027 0.751807 0.881191 -0.221864
C16   C     C_R   0.102373 0.271198 0.928815 -0.216490
C17   C     C_R   0.602468 0.213721 0.796373 -0.147527
C18   C     C_R   0.603754 0.798773 0.826109 -0.177501
C19   C     C_R   0.102477 0.713757 0.796315 -0.147507
C20   C     C_R   0.103767 0.298823 0.826201 -0.177784
C21   C     C_R   0.332702 0.797539 0.175983 -0.082045
C22   C     C_R   0.338054 0.203191 0.177225 -0.080394
C23   C     C_R   0.832702 0.297565 0.175913 -0.082006
C24   C     C_R   0.838046 0.703192 0.177228 -0.080474
C25   C     C_R   0.230073 0.851338 0.209105 -0.172530
C26   C     C_R   0.251864 0.174033 0.257923 -0.217865
C27   C     C_R   0.730122 0.351241 0.209251 -0.172679
C28   C     C_R   0.751812 0.673985 0.257832 -0.217795
C29   C     C_R   0.697473 0.139965 0.768416 -0.155598
C30   C     C_R   0.690435 0.852793 0.758210 -0.208296
C31   C     C_R   0.197485 0.639951 0.768445 -0.155549
C32   C     C_R   0.190417 0.352775 0.758188 -0.208005
C33   C     C_R   0.686531 0.999631 0.287222 -0.312760
C34   C     C_R   0.186530 0.499606 0.287219 -0.312763
C35   C     C_R   0.342436 0.000913 0.632722 0.075717
C36   C     C_R   0.842435 0.500907 0.632722 0.075921
C37   C     C_R   0.310465 0.014638 0.706904 0.343256
C38   C     C_R   0.810455 0.514666 0.706883 0.343400
C39   C     C_R   0.389134 0.102614 0.348700 0.824679
C40   C     C_R   0.386246 0.899288 0.344939 0.824137
C41   C     C_R   0.889129 0.602611 0.348694 0.824778
C42   C     C_R   0.886252 0.399282 0.344945 0.824102
C43   C     C_R   0.371635 0.015072 0.851519 -0.267748
C44   C     C_R   0.871637 0.515141 0.851511 -0.267980
C45   C     C_R   0.465133 0.006437 0.923811 -0.052116
C46   C     C_R   0.965132 0.506472 0.923807 -0.051937
C47   C     C_R   0.496309 0.002532 0.843380 0.241459
C48   C     C_R   0.996308 0.502543 0.843378 0.241407
C49   C     C_R   0.528516 0.003288 0.073631 -0.000856
C50   C     C_R   0.028515 0.503310 0.073629 -0.000815
C51   C     C_R   0.622834 0.001030 0.141327 0.168331
C52   C     C_R   0.122832 0.501027 0.141324 0.168267
C53   C     C_R   0.652985 0.000270 0.063149 -0.264783
C54   C     C_R   0.152983 0.500262 0.063147 -0.264784
C55   C     C_R   0.591402 0.000426 0.918061 -0.130079
C56   C     C_R   0.091401 0.500425 0.918060 -0.130075
C57   C     C_R   0.502467 0.001653 0.160128 0.081292
C58   C     C_R   0.002466 0.501675 0.160127 0.081320
C59   C     C_R   0.656728 0.999444 0.365796 0.093829
C60   C     C_R   0.156727 0.499422 0.365794 0.093825
C61   C     C_R   0.656186 0.317174 0.091261 -0.192587
C62   C     C_R   0.678344 0.713147 0.149752 -0.213498
C63   C     C_R   0.156142 0.817281 0.091094 -0.192600
C64   C     C_R   0.178405 0.213217 0.149881 -0.213515
C65   C     C_R   0.317437 0.845064 0.249041 -0.118431
C66   C     C_R   0.327663 0.162644 0.264161 -0.116753
C67   C     C_R   0.817461 0.345042 0.249062 -0.118569
C68   C     C_R   0.827642 0.662631 0.264135 -0.116793
C69   C     C_R   0.784663 0.116971 0.817567 0.471349
C70   C     C_R   0.774176 0.859839 0.782929 0.434043
C71   C     C_R   0.284675 0.616921 0.817656 0.471272
C72   C     C_R   0.274141 0.359780 0.782842 0.434047
C73   C     C_R   0.359656 0.631143 0.958219 -0.275014
C74   C     C_R   0.354973 0.345107 0.914875 -0.231826
C75   C     C_R   0.859668 0.131223 0.958100 -0.274987
C76   C     C_R   0.854995 0.845175 0.914980 -0.231695
C77   C     C_R   0.348824 0.671268 0.041044 -0.208992
C78   C     C_R   0.352605 0.315890 0.015749 -0.216620
C79   C     C_R   0.848849 0.171330 0.040958 -0.209088
C80   C     C_R   0.852604 0.815928 0.015812 -0.216638
C81   C     C_R   0.766599 0.207122 0.983829 0.097611
C82   C     C_R   0.769693 0.791361 0.981745 0.091222
C83   C     C_R   0.266593 0.707105 0.983864 0.097608
C84   C     C_R   0.269699 0.291358 0.981742 0.091153
C85   C     C_R   0.688721 0.187754 0.848036 0.020247
C86   C     C_R   0.687220 0.813784 0.853688 0.016027
C87   C     C_R   0.188728 0.687755 0.848040 0.020240
C88   C     C_R   0.187219 0.313793 0.853708 0.016097
Cu1   Cu    Cu3+1 0.526340 0.000000 0.421010 1.019690
Cu2   Cu    Cu3+1 0.026340 0.500000 0.421010 1.019685
Cu3   Cu    Cu3+1 0.473640 0.000000 0.578990 0.950893
Cu4   Cu    Cu3+1 0.973640 0.500000 0.578990 0.950900
H1    H     H_    0.216462 0.889446 0.258435 0.190761
H2    H     H_    0.245853 0.148162 0.329906 0.217322
H3    H     H_    0.716525 0.389299 0.258665 0.190879
H4    H     H_    0.745784 0.648099 0.329785 0.217311
H5    H     H_    0.725417 0.998709 0.114871 0.152411
H6    H     H_    0.225415 0.498686 0.114868 0.152411
H7    H     H_    0.759123 0.998798 0.340250 0.138632
H8    H     H_    0.259120 0.498751 0.340247 0.138654
H9    H     H_    0.432082 0.000989 0.117340 0.136966
H10   H     H_    0.932081 0.501023 0.117337 0.136973
H11   H     H_    0.343670 0.021073 0.904527 0.163357
H12   H     H_    0.843692 0.521181 0.904541 0.163183
H13   H     H_    0.621744 0.998943 0.868796 0.197504
H14   H     H_    0.121742 0.498936 0.868795 0.197507
H15   H     H_    0.523989 0.266789 0.841315 0.139913
H16   H     H_    0.537409 0.765144 0.907507 0.159511
H17   H     H_    0.023979 0.766892 0.841149 0.139925
H18   H     H_    0.037462 0.265251 0.907692 0.159554
H19   H     H_    0.588340 0.328196 0.056643 0.134085
H20   H     H_    0.616471 0.714790 0.138400 0.157866
H21   H     H_    0.088286 0.828352 0.056391 0.134035
H22   H     H_    0.116553 0.214890 0.138583 0.157806
H23   H     H_    0.405918 0.672816 0.150979 0.157963
H24   H     H_    0.416423 0.313772 0.120328 0.173730
H25   H     H_    0.905970 0.172902 0.150878 0.158026
H26   H     H_    0.916409 0.813814 0.120407 0.173729
H27   H     H_    0.427155 0.610430 0.008447 0.145640
H28   H     H_    0.419889 0.359064 0.940701 0.143688
H29   H     H_    0.927177 0.110548 0.008282 0.145614
H30   H     H_    0.919917 0.859156 0.940849 0.143711
H31   H     H_    0.541689 0.203088 0.690848 0.154277
H32   H     H_    0.538540 0.809029 0.725734 0.181290
H33   H     H_    0.041710 0.703126 0.690777 0.154260
H34   H     H_    0.038541 0.309079 0.725844 0.181323
H35   H     H_    0.705915 0.998698 0.478099 0.176556
H36   H     H_    0.205916 0.498659 0.478098 0.176563
N1    N     N_R   0.566260 0.000000 0.302220 -0.188114
N2    N     N_R   0.066260 0.500000 0.302220 -0.188143
N3    N     N_R   0.434410 0.000000 0.697680 -0.274016
N4    N     N_R   0.934410 0.500000 0.697680 -0.274054
O1    O     O_R   0.608610 0.924520 0.551740 -0.531045
O2    O     O_R   0.608610 0.075480 0.551740 -0.510065
O3    O     O_R   0.108610 0.424520 0.551740 -0.530971
O4    O     O_R   0.108610 0.575480 0.551740 -0.510077
O5    O     O_R   0.564110 0.924510 0.685150 -0.617655
O6    O     O_R   0.564110 0.075490 0.685150 -0.623803
O7    O     O_R   0.064110 0.424510 0.685150 -0.617699
O8    O     O_R   0.064110 0.575490 0.685150 -0.623779
O9    O     O_R   0.435880 0.075470 0.314850 -0.575916
O10   O     O_R   0.435880 0.924530 0.314850 -0.574601
O11   O     O_R   0.935880 0.575470 0.314850 -0.575949
O12   O     O_R   0.935880 0.424530 0.314850 -0.574571
O13   O     O_R   0.391380 0.075460 0.448260 -0.565361
O14   O     O_R   0.391380 0.924540 0.448260 -0.579059
O15   O     O_R   0.891380 0.575460 0.448260 -0.565242
O16   O     O_R   0.891380 0.424540 0.448260 -0.579116
C89   C     C_2   0.273306 0.977166 0.488704 0.949265
O17   O     O_2   0.243040 0.916361 0.468108 -0.598764
O18   O     O_R   0.233975 0.025430 0.378865 -0.798312
H37   H     H_    0.181527 0.003993 0.285880 0.300065
C90   C     C_2   0.773310 0.477126 0.488724 0.949260
O19   O     O_2   0.742987 0.416344 0.468190 -0.598808
O20   O     O_R   0.734047 0.525342 0.378822 -0.798212
H38   H     H_    0.681588 0.503894 0.285858 0.300034
O21   O     O_3   0.217154 0.019453 0.635744 -0.594132
C91   C     C_3   0.196267 0.086206 0.663145 0.070870
H39   H     H_    0.234254 0.131047 0.659753 0.132517
H40   H     H_    0.212982 0.085201 0.766964 0.165729
C92   C     C_3   0.094135 0.100235 0.552888 -0.328751
H41   H     H_    0.076762 0.104449 0.448873 0.227401
H42   H     H_    0.054828 0.054856 0.550609 0.229253
C93   C     C_3   0.066742 0.169176 0.583532 -0.882518
H43   H     H_    0.079967 0.164710 0.684367 0.253428
H44   H     H_    0.992797 0.179025 0.500094 0.272692
H45   H     H_    0.106103 0.215248 0.588319 0.272070
O22   O     O_3   0.717125 0.519460 0.635651 -0.594222
C94   C     C_3   0.696178 0.585992 0.663673 0.071088
H46   H     H_    0.734671 0.630990 0.661828 0.132767
H47   H     H_    0.712202 0.584376 0.766996 0.165510
C95   C     C_3   0.594201 0.600376 0.552641 -0.328862
H48   H     H_    0.577524 0.605113 0.449146 0.227382
H49   H     H_    0.554412 0.554912 0.548921 0.229218
C96   C     C_3   0.566674 0.669089 0.583692 -0.882209
H50   H     H_    0.579343 0.664178 0.684062 0.253382
H51   H     H_    0.492836 0.679127 0.499824 0.272933
H52   H     H_    0.606365 0.715247 0.589618 0.271780
C97   C     C_2   0.422852 0.799224 0.206994 0.841722
O23   O     O_2   0.427465 0.814894 0.115372 -0.590315
O24   O     O_R   0.502271 0.784793 0.341781 -0.793802
H53   H     H_    0.559159 0.787760 0.349927 0.319364
C98   C     C_2   0.418074 0.190436 0.182807 0.844999
O25   O     O_2   0.495235 0.202806 0.290090 -0.580044
O26   O     O_R   0.404707 0.164149 0.065286 -0.787289
H54   H     H_    0.464083 0.158537 0.081149 0.329354
C99   C     C_2   0.922787 0.299335 0.206718 0.841916
O27   O     O_2   0.927272 0.315053 0.114983 -0.590362
O28   O     O_R   0.002287 0.284917 0.341432 -0.793735
H55   H     H_    0.059118 0.287950 0.349433 0.319316
C100  C     C_2   0.918097 0.690469 0.182877 0.844978
O29   O     O_2   0.995242 0.702843 0.290194 -0.580052
O30   O     O_R   0.904780 0.664202 0.065382 -0.787240
H56   H     H_    0.964174 0.658604 0.081296 0.329380
O31   O     O_3   0.789628 0.078140 0.725618 -0.601283
C101  C     C_3   0.875935 0.048818 0.783262 0.086031
H57   H     H_    0.864350 0.006449 0.711183 0.185578
H58   H     H_    0.907177 0.020494 0.883179 0.133015
C102  C     C_3   0.939520 0.104417 0.791396 -0.386660
H59   H     H_    0.910019 0.121512 0.684321 0.231380
H60   H     H_    0.946373 0.152669 0.849357 0.225383
C103  C     C_3   0.034212 0.073239 0.863024 -0.914730
H61   H     H_    0.065730 0.057186 0.971374 0.258202
H62   H     H_    0.078769 0.114015 0.866931 0.267538
H63   H     H_    0.029657 0.025928 0.804674 0.255837
O32   O     O_3   0.779241 0.891744 0.687105 -0.620236
C104  C     C_3   0.788479 0.838361 0.615685 0.045794
H64   H     H_    0.720853 0.829921 0.512007 0.167357
H65   H     H_    0.812454 0.785482 0.670142 0.126441
C105  C     C_3   0.856768 0.864123 0.595897 -0.372611
H66   H     H_    0.835750 0.917110 0.544018 0.211747
H67   H     H_    0.925171 0.870210 0.699391 0.210246
C106  C     C_3   0.862811 0.811879 0.507418 -0.888105
H68   H     H_    0.880856 0.757548 0.554135 0.248954
H69   H     H_    0.916110 0.830257 0.500852 0.264575
H70   H     H_    0.796423 0.809511 0.400496 0.269889
O33   O     O_3   0.289662 0.578096 0.725727 -0.601303
C107  C     C_3   0.375952 0.548710 0.783444 0.086055
H71   H     H_    0.364363 0.506352 0.711345 0.185632
H72   H     H_    0.407106 0.520362 0.883310 0.133026
C108  C     C_3   0.439648 0.604261 0.791755 -0.386653
H73   H     H_    0.410253 0.621354 0.684725 0.231325
H74   H     H_    0.446488 0.652523 0.849684 0.225396
C109  C     C_3   0.534333 0.573024 0.863548 -0.915018
H75   H     H_    0.565739 0.556960 0.971849 0.258217
H76   H     H_    0.578980 0.613768 0.867610 0.267477
H77   H     H_    0.529797 0.525709 0.805222 0.255878
O34   O     O_3   0.279182 0.391677 0.686987 -0.620256
C110  C     C_3   0.288510 0.338298 0.615662 0.045730
H78   H     H_    0.220916 0.329839 0.511945 0.167324
H79   H     H_    0.312485 0.285424 0.670136 0.126370
C111  C     C_3   0.356846 0.364088 0.595990 -0.372567
H80   H     H_    0.335838 0.417082 0.544132 0.211775
H81   H     H_    0.425226 0.370170 0.699523 0.210235
C112  C     C_3   0.362952 0.311869 0.507546 -0.888157
H82   H     H_    0.380950 0.257525 0.554206 0.248931
H83   H     H_    0.416306 0.330253 0.501108 0.264595
H84   H     H_    0.296599 0.309530 0.400578 0.269885

loop_
_geom_bond_atom_site_label_1
_geom_bond_atom_site_label_2
_ccdc_geom_bond_type
C26   H2    S    
C83   C87   A    
C25   H1    S    
O21   C91   S    
C73   H27   S    
C40   O10   A    
Cu4   O16   S    
C8    C82   A    
C94   H47   S    
C94   H46   S    
C14   C18   A    
C53   C55   A    
C27   H3    S    
C34   C60   A    
C57   H9    S    
C13   H15   S    
C42   O16   A    
C109  H75   S    
Cu1   O1    S    
C92   H41   S    
C44   H12   S    
C112  H82   S    
Cu1   N1    S    
C93   H44   S    
C32   C72   A    
O24   H53   S    
C38   O22   S    
C18   C86   A    
C103  H62   S    
C55   H13   S    
C2    C29   S    
C9    C61   A    
C57   N1    A    
C93   H43   S    
C28   C68   A    
Cu3   O6    S    
C41   O11   A    
C108  C109  S    
C11   C63   A    
C98   O26   S    
C18   H32   S    
C6    C12   A    
C12   C64   A    
Cu1   Cu3   S    
Cu1   O9    S    
Cu3   N3    S    
C77   C83   A    
C59   H35   S    
Cu1   O10   S    
C6    C22   A    
C102  C103  S    
C20   C88   A    
C69   O31   S    
C49   C57   A    
C48   C56   A    
C25   C63   A    
C37   O21   S    
C9    C13   A    
C22   C66   A    
C26   C64   A    
C27   C61   A    
C91   C92   S    
C30   C70   A    
Cu3   O5    S    
C11   C15   A    
C17   H31   S    
O26   H54   S    
C12   C16   A    
C95   H49   S    
C49   C51   A    
C103  H63   S    
C104  C105  S    
C34   H8    S    
O18   H37   S    
C58   H10   S    
C30   C86   A    
C29   C85   A    
Cu2   O11   S    
C95   C96   S    
C74   C78   A    
C4    C31   S    
C4    O4    A    
C21   C65   A    
C81   C85   A    
C45   C47   A    
C3    O7    A    
C102  H59   S    
C33   C59   A    
Cu4   O15   S    
C91   H40   S    
C112  H83   S    
C22   C98   S    
C10   C62   A    
C101  C102  S    
C1    O1    A    
C28   C62   A    
O34   C110  S    
C92   H42   S    
C52   C54   A    
C36   C90   S    
C96   H52   S    
C29   C69   A    
C106  H69   S    
C48   N4    A    
Cu2   Cu4   S    
C46   C48   A    
C14   H16   S    
C6    C84   A    
C103  H61   S    
C16   H18   S    
C104  H64   S    
C2    O6    A    
C39   O9    A    
C60   H36   S    
C31   C87   A    
C96   H51   S    
C10   C14   A    
C80   H26   S    
C60   N2    A    
C79   C81   A    
O32   C104  S    
C44   C46   A    
C53   H5    S    
O33   C107  S    
C106  H68   S    
C19   H33   S    
C111  C112  S    
C33   C51   A    
C100  O29   D    
C47   N3    A    
C33   H7    S    
C26   C66   A    
C37   C43   A    
C15   C19   A    
C98   O25   D    
C100  O30   S    
C5    C83   A    
C38   C44   A    
C110  H78   S    
C112  H84   S    
C4    O8    A    
C108  H73   S    
Cu2   O4    S    
C50   C52   A    
C96   H50   S    
C41   O15   A    
C45   C49   A    
C16   C20   A    
C39   O13   A    
C111  H81   S    
C50   C58   A    
C62   H20   S    
C3    C32   S    
C2    O2    A    
C43   C45   A    
C56   H14   S    
C72   C74   A    
O22   C94   S    
C7    C81   A    
O30   H56   S    
C105  H67   S    
C40   C65   S    
C110  C111  S    
C42   O12   A    
C42   C67   S    
C110  H79   S    
C39   C66   S    
C17   C85   A    
C90   O20   S    
C36   C38   A    
Cu4   O8    S    
C109  H77   S    
C35   N3    A    
Cu3   O13   S    
C92   C93   S    
C1    O5    A    
C95   H48   S    
C35   C37   A    
C107  C108  S    
C47   C55   A    
C106  H70   S    
C7    C9    A    
C41   C68   S    
C59   N1    A    
Cu1   O2    S    
C36   N4    A    
Cu4   N4    S    
Cu2   N2    S    
C75   H29   S    
C93   H45   S    
C78   H24   S    
C76   C80   A    
C104  H65   S    
C101  H57   S    
C109  H76   S    
C54   C56   A    
C5    C11   A    
C40   O14   A    
C97   O23   D    
C70   O32   S    
C105  C106  S    
C74   H28   S    
C46   C50   A    
C34   C52   A    
C71   O33   S    
C23   C99   S    
C13   C17   A    
C107  H72   S    
C28   H4    S    
C76   H30   S    
C89   O18   S    
C19   C87   A    
C99   O27   D    
C108  H74   S    
C82   C86   A    
C89   O17   D    
C70   C76   A    
Cu2   O3    S    
C15   H17   S    
C107  H71   S    
C91   H39   S    
C84   C88   A    
C23   C67   A    
C58   N2    A    
C61   H19   S    
C7    C23   A    
C79   H25   S    
C31   C71   A    
C1    C30   S    
C94   C95   S    
C80   C82   A    
C20   H34   S    
C69   C75   A    
C24   C100  S    
C3    O3    A    
O28   H55   S    
C43   H11   S    
C99   O28   S    
C101  H58   S    
C27   C67   A    
C24   C68   A    
O31   C101  S    
C63   H21   S    
C78   C84   A    
C21   C97   S    
C5    C21   A    
C8    C24   A    
C64   H22   S    
C8    C10   A    
C105  H66   S    
C72   O34   S    
C71   C73   A    
O20   H38   S    
C102  H60   S    
C25   C65   A    
C73   C77   A    
C54   H6    S    
C35   C89   S    
C51   C53   A    
C90   O19   D    
C77   H23   S    
Cu4   O7    S    
C75   C79   A    
Cu3   O14   S    
Cu2   O12   S    
C111  H80   S    
C97   O24   S    
C32   C88   A    
