data_str_m9_o1_o2_f0_sra.sym.72
_audit_creation_date              2012-12-11T15:54:45-0500
_audit_creation_method            fapswitch 2.2
_symmetry_space_group_name_H-M    P1
_symmetry_Int_Tables_number       1
_space_group_crystal_system       triclinic
_cell_length_a                    6.927127
_cell_length_b                    14.484293
_cell_length_c                    16.141461
_cell_angle_alpha                 90.000921
_cell_angle_beta                  90.2
_cell_angle_gamma                 89.754435
_cell_volume                      1619.5212763

loop_
_atom_site_label
_atom_site_type_symbol
_atom_type_description
_atom_site_fract_x
_atom_site_fract_y
_atom_site_fract_z
_atom_type_partial_charge
O1    O     O_R   0.638180 0.333920 0.163320 -0.542592
O2    O     O_R   0.361820 0.666080 0.836680 -0.542591
O3    O     O_R   0.308470 0.344960 0.336080 -0.546111
O4    O     O_R   0.691530 0.655040 0.663920 -0.546111
O5    O     O_R   0.138140 0.166110 0.336680 -0.531270
O6    O     O_R   0.861860 0.833890 0.663320 -0.531270
C1    C     C_R   0.477486 0.367137 0.365119 0.689864
C2    C     C_R   0.522514 0.632863 0.634881 0.689865
O7    O     O_R   0.308460 0.344950 0.163930 -0.545380
O8    O     O_R   0.691540 0.655050 0.836070 -0.545380
O9    O     O_R   0.138140 0.166100 0.163310 -0.541966
O10   O     O_R   0.861860 0.833900 0.836690 -0.541967
C3    C     C_R   0.477202 0.367245 0.134971 0.681620
C4    C     C_R   0.522798 0.632755 0.865029 0.681620
O11   O     O_R   0.638180 0.333930 0.336700 -0.542259
O12   O     O_R   0.361820 0.666070 0.663300 -0.542260
O13   O     O_3   0.471670 0.191340 0.250000 -0.373490
O14   O     O_3   0.528330 0.808660 0.750000 -0.373490
V1    V     V_3+5 0.196830 0.260900 0.250000 1.401445
V2    V     V_3+5 0.803170 0.739100 0.750000 1.401445
O15   O     O_R   0.808420 0.155070 0.163920 -0.546104
O16   O     O_R   0.191580 0.844930 0.836080 -0.546104
C5    C     C_R   0.977367 0.133275 0.134596 0.742532
C6    C     C_R   0.022633 0.866725 0.865404 0.742533
O17   O     O_R   0.808420 0.155080 0.336070 -0.541885
O18   O     O_R   0.191580 0.844920 0.663930 -0.541885
C7    C     C_R   0.979046 0.130001 0.362099 0.803059
C8    C     C_R   0.020954 0.869999 0.637901 0.803060
V3    V     V_3+5 0.696830 0.239130 0.250000 1.403091
V4    V     V_3+5 0.303170 0.760870 0.750000 1.403091
O19   O     O_3   0.971850 0.308690 0.250010 -0.377460
O20   O     O_3   0.028150 0.691310 0.749990 -0.377460
H1    H     H_    0.027800 0.803863 0.261676 0.130782
H2    H     H_    0.972200 0.196137 0.738323 0.130782
C9    C     C_R   0.998729 0.192774 0.529531 -0.149203
C10   C     C_R   0.001271 0.807226 0.470469 -0.149203
C11   C     C_R   0.997634 0.227423 0.609671 -0.194308
C12   C     C_R   0.002366 0.772577 0.390329 -0.194308
C13   C     C_R   0.981517 0.167850 0.676351 -0.180783
C14   C     C_R   0.018483 0.832150 0.323648 -0.180783
C15   C     C_R   0.967867 0.072267 0.663965 0.427079
C16   C     C_R   0.032133 0.927733 0.336035 0.427078
C17   C     C_R   0.990933 0.034286 0.582898 -0.021541
C18   C     C_R   0.009067 0.965713 0.417102 -0.021541
C19   C     C_R   0.994688 0.096473 0.514232 0.010950
C20   C     C_R   0.005312 0.903527 0.485768 0.010950
C21   C     C_R   0.004960 0.937374 0.568293 -0.167007
C22   C     C_R   0.995040 0.062626 0.431707 -0.167008
H3    H     H_    0.005698 0.242747 0.479820 0.107412
H4    H     H_    0.994301 0.757253 0.520180 0.107412
H5    H     H_    0.003800 0.301228 0.619976 0.136254
H6    H     H_    0.996200 0.698771 0.380024 0.136254
C23   C     C_R   0.177814 0.980340 0.963018 -0.145092
C24   C     C_R   0.822186 0.019660 0.036982 -0.145092
H7    H     H_    0.317204 0.966553 0.935358 0.110245
H8    H     H_    0.682796 0.033447 0.064642 0.110244
C25   C     C_R   0.166541 0.044374 0.027849 -0.164978
C26   C     C_R   0.833459 0.955626 0.972151 -0.164978
H9    H     H_    0.297801 0.078096 0.047972 0.108654
H10   H     H_    0.702199 0.921903 0.952028 0.108654
C27   C     C_R   0.988617 0.064858 0.065826 -0.027813
C28   C     C_R   0.011383 0.935142 0.934174 -0.027812
C29   C     C_R   0.320479 0.475851 0.466712 -0.161154
C30   C     C_R   0.679521 0.524149 0.533287 -0.161154
H11   H     H_    0.179699 0.458328 0.442116 0.112772
H12   H     H_    0.820301 0.541672 0.557884 0.112772
C31   C     C_R   0.331673 0.539616 0.531750 -0.151372
C32   C     C_R   0.668327 0.460383 0.468250 -0.151372
H13   H     H_    0.198950 0.569472 0.555041 0.114134
H14   H     H_    0.801050 0.430528 0.444959 0.114134
C33   C     C_R   0.511340 0.564580 0.566028 -0.041906
C34   C     C_R   0.488660 0.435419 0.433972 -0.041906
C35   C     C_R   0.320201 0.475075 0.032071 -0.160130
C36   C     C_R   0.679799 0.524924 0.967929 -0.160130
H15   H     H_    0.179260 0.456918 0.055675 0.115435
H16   H     H_    0.820740 0.543082 0.944325 0.115435
C37   C     C_R   0.331722 0.538609 0.966876 -0.152478
C38   C     C_R   0.668278 0.461391 0.033124 -0.152478
H17   H     H_    0.198916 0.567598 0.942445 0.117796
H18   H     H_    0.801084 0.432401 0.057555 0.117796
C39   C     C_R   0.511688 0.564420 0.933851 -0.045430
C40   C     C_R   0.488312 0.435580 0.066148 -0.045430
O21   O     O_3   0.923078 0.017581 0.731275 -0.576018
C41   C     C_3   0.723350 0.027326 0.747139 -0.209167
H19   H     H_    0.635327 0.005553 0.692716 0.138984
H20   H     H_    0.685292 0.099147 0.765491 0.117986
H21   H     H_    0.683545 0.982404 0.799730 0.166802
O22   O     O_3   0.076922 0.982419 0.268725 -0.576018
C42   C     C_3   0.276650 0.972674 0.252861 -0.209167
H22   H     H_    0.314710 0.900853 0.234510 0.117986
H23   H     H_    0.364672 0.994448 0.307284 0.138985
H24   H     H_    0.316455 0.017595 0.200270 0.166802

loop_
_geom_bond_atom_site_label_1
_geom_bond_atom_site_label_2
_ccdc_geom_bond_type
C7    C22   S    
C26   C28   A    
V4    O20   S    
C29   H11   S    
C8    C21   S    
O13   V3    S    
C41   H21   S    
O4    C2    A    
V1    O19   S    
C13   C15   A    
O9    V1    S    
C36   H16   S    
C30   C32   A    
C9    C11   A    
C41   H20   S    
O3    C1    A    
C24   C26   A    
C11   H5    S    
C38   H18   S    
C25   H9    S    
C12   H6    S    
C26   H10   S    
C15   O21   S    
C30   C33   A    
O7    C3    A    
O5    C7    A    
O7    V1    S    
O6    C8    A    
O8    V2    S    
C9    H3    S    
O3    V1    S    
O14   V4    S    
C42   H23   S    
C31   C33   A    
C37   H17   S    
C2    O12   A    
V3    O19   S    
C15   C17   A    
C16   C18   A    
C18   C20   A    
O11   V3    S    
C24   H8    S    
C23   H7    S    
O17   V3    S    
C29   C31   A    
H1    C14   S    
H2    C13   S    
C41   H19   S    
O8    C4    A    
C1    C34   S    
C23   C25   A    
C1    O11   A    
O15   V3    S    
C3    C40   S    
C31   H13   S    
C30   H12   S    
C23   C28   A    
C38   C40   A    
O21   C41   S    
C37   C39   A    
C32   C34   A    
O10   V2    S    
O1    V3    S    
C29   C34   A    
C42   H24   S    
C10   C20   A    
C17   C19   A    
O18   V4    S    
O15   C5    A    
O16   C6    A    
C16   O22   S    
C35   H15   S    
C36   C39   A    
C9    C19   A    
C35   C40   A    
C10   H4    S    
V2    O20   S    
C19   C22   A    
C20   C21   A    
C2    C33   S    
C6    C28   S    
O16   V4    S    
C14   C16   A    
C25   C27   A    
O5    V1    S    
C24   C27   A    
O17   C7    A    
O6    V2    S    
O10   C6    A    
O18   C8    A    
O2    V4    S    
C10   C12   A    
C11   C13   A    
C12   C14   A    
C17   C21   A    
O9    C5    A    
O13   V1    S    
O14   V2    S    
O2    C4    A    
O4    V2    S    
C5    C27   S    
O1    C3    A    
O22   C42   S    
C32   H14   S    
C36   C38   A    
C35   C37   A    
C4    C39   S    
C42   H22   S    
O12   V4    S    
C18   C22   A    
