data_str_m9_o16_o23_f0_sra.sym.32
_audit_creation_date              2012-12-11T15:12:43-0500
_audit_creation_method            fapswitch 2.2
_symmetry_space_group_name_H-M    P1
_symmetry_Int_Tables_number       1
_space_group_crystal_system       triclinic
_cell_length_a                    22.338479
_cell_length_b                    6.943229
_cell_length_c                    19.373132
_cell_angle_alpha                 89.999439
_cell_angle_beta                  99.169026
_cell_angle_gamma                 90.000426
_cell_volume                      2966.40192267

loop_
_atom_site_label
_atom_site_type_symbol
_atom_type_description
_atom_site_fract_x
_atom_site_fract_y
_atom_site_fract_z
_atom_type_partial_charge
O1    O     O_R   0.448420 0.506120 0.415750 -0.535601
O2    O     O_R   0.551580 0.006120 0.584250 -0.535598
O3    O     O_R   0.436490 0.174470 0.555610 -0.536975
O4    O     O_R   0.563510 0.674470 0.444390 -0.536974
C1    C     C_R   0.421067 0.344688 0.575790 0.719195
C2    C     C_R   0.578933 0.844690 0.424210 0.719195
O5    O     O_R   0.441310 0.176330 0.414520 -0.536641
O6    O     O_R   0.558690 0.676330 0.585480 -0.536643
O7    O     O_R   0.556430 0.007110 0.442150 -0.535282
O8    O     O_R   0.443570 0.507110 0.557850 -0.535281
C3    C     C_R   0.426772 0.345071 0.388376 0.685892
C4    C     C_R   0.573228 0.845071 0.611624 0.685893
O9    O     O_3   0.537770 0.339560 0.509230 -0.365319
O10   O     O_3   0.462230 0.839560 0.490770 -0.365321
V1    V     V_3+5 0.492990 0.064280 0.498290 1.425994
V2    V     V_3+5 0.507010 0.564280 0.501710 1.425991
C5    C     C_R   0.867120 0.976601 0.695646 -0.163060
C6    C     C_R   0.132885 0.476685 0.304351 -0.163062
H1    H     H_    0.954268 0.003503 0.759678 0.102020
H2    H     H_    0.045736 0.503581 0.240319 0.102021
H3    H     H_    0.784904 0.972747 0.580887 0.119313
H4    H     H_    0.215104 0.472902 0.419106 0.119315
H5    H     H_    0.885533 0.003529 0.648061 0.107829
H6    H     H_    0.114474 0.503657 0.351933 0.107831
C7    C     C_R   0.884464 0.941239 0.821498 -0.038690
C8    C     C_R   0.115535 0.441240 0.178502 -0.038694
C9    C     C_R   0.590037 0.818302 0.739829 -0.163640
C10   C     C_R   0.409959 0.318219 0.260173 -0.163637
C11   C     C_R   0.626637 0.816503 0.804955 -0.123995
C12   C     C_R   0.373356 0.316373 0.195049 -0.123997
C13   C     C_R   0.688936 0.846613 0.810994 -0.158110
C14   C     C_R   0.311059 0.346510 0.189009 -0.158112
C15   C     C_R   0.716615 0.880107 0.751305 0.078583
C16   C     C_R   0.283384 0.380082 0.248695 0.078584
C17   C     C_R   0.678485 0.883573 0.684344 0.069067
C18   C     C_R   0.321517 0.383594 0.315654 0.069069
C19   C     C_R   0.780744 0.909966 0.755846 0.073551
C20   C     C_R   0.219255 0.409967 0.244153 0.073550
C21   C     C_R   0.804780 0.944277 0.693292 0.141824
C22   C     C_R   0.195223 0.444339 0.306705 0.141825
C23   C     C_R   0.766599 0.946947 0.628628 -0.204064
C24   C     C_R   0.233407 0.447052 0.371368 -0.204067
C25   C     C_R   0.704592 0.916770 0.624101 -0.194692
C26   C     C_R   0.295412 0.416856 0.375895 -0.194698
C27   C     C_R   0.822117 0.907837 0.820009 -0.216574
C28   C     C_R   0.177881 0.407809 0.179992 -0.216575
C29   C     C_R   0.906439 0.976201 0.759144 -0.170198
C30   C     C_R   0.093564 0.476256 0.240854 -0.170195
C31   C     C_R   0.614925 0.852003 0.679167 -0.083577
C32   C     C_R   0.385075 0.351995 0.320833 -0.083583
H7    H     H_    0.807479 0.882956 0.869629 0.091560
H8    H     H_    0.192518 0.382897 0.130374 0.091564
H9    H     H_    0.606525 0.790618 0.851391 0.112871
H10   H     H_    0.393466 0.290425 0.148615 0.112872
H11   H     H_    0.677140 0.920032 0.572730 0.109425
H12   H     H_    0.322866 0.420156 0.427265 0.109435
C33   C     C_3   0.808177 0.748562 0.261966 -0.327502
C34   C     C_3   0.191832 0.248517 0.738051 -0.327506
C35   C     C_3   0.786546 0.102844 0.248322 -0.330823
C36   C     C_3   0.213441 0.602830 0.751659 -0.330824
C37   C     C_3   0.738505 0.085410 0.298090 -0.327964
C38   C     C_3   0.261483 0.585394 0.701892 -0.327965
H13   H     H_    0.782487 0.751840 0.366724 0.137038
H14   H     H_    0.217520 0.251747 0.633291 0.137040
H15   H     H_    0.853472 0.777673 0.293362 0.136356
H16   H     H_    0.146537 0.277576 0.706654 0.136357
H17   H     H_    0.773851 0.223115 0.210860 0.135135
H18   H     H_    0.226127 0.723138 0.789108 0.135129
H19   H     H_    0.831417 0.139262 0.279378 0.136688
H20   H     H_    0.168568 0.639204 0.720599 0.136689
H21   H     H_    0.760524 0.113407 0.352840 0.136880
H22   H     H_    0.239462 0.613352 0.647140 0.136877
H23   H     H_    0.702996 0.197524 0.284328 0.135348
H24   H     H_    0.296984 0.697542 0.715642 0.135343
C39   C     C_1   0.624808 0.854901 0.378858 -0.191289
C40   C     C_1   0.375191 0.354895 0.621143 -0.191290
C41   C     C_3   0.791248 0.912145 0.207707 0.293046
C42   C     C_3   0.208752 0.412148 0.792292 0.293059
C43   C     C_3   0.760086 0.731106 0.311675 -0.328727
C44   C     C_3   0.239923 0.231059 0.688341 -0.328728
C45   C     C_3   0.708961 0.882402 0.292839 0.291367
C46   C     C_3   0.291039 0.382400 0.707161 0.291380
C47   C     C_3   0.679585 0.849106 0.215626 -0.328165
C48   C     C_3   0.320418 0.349162 0.784376 -0.328167
C49   C     C_3   0.727660 0.866437 0.165893 -0.328928
C50   C     C_3   0.272343 0.366498 0.834109 -0.328929
C51   C     C_1   0.662779 0.866246 0.340412 -0.101477
C52   C     C_1   0.337221 0.366240 0.659589 -0.101473
C53   C     C_1   0.837392 0.928267 0.160075 -0.102188
C54   C     C_1   0.162608 0.428273 0.839924 -0.102184
C55   C     C_1   0.875272 0.939574 0.121505 -0.194526
C56   C     C_1   0.124729 0.439580 0.878495 -0.194528
H25   H     H_    0.729335 0.729292 0.136524 0.136128
H26   H     H_    0.270678 0.229370 0.863493 0.136127
H27   H     H_    0.713849 0.981989 0.126781 0.136316
H28   H     H_    0.286148 0.482082 0.873210 0.136317
H29   H     H_    0.811439 0.609101 0.234475 0.135925
H30   H     H_    0.188581 0.109065 0.765554 0.135919
H31   H     H_    0.642898 0.956460 0.200190 0.136465
H32   H     H_    0.357099 0.456541 0.799802 0.136468
O11   O     O_R   0.056480 0.288780 0.942210 -0.535573
O12   O     O_R   0.943520 0.788780 0.057790 -0.535574
O13   O     O_R   0.058700 0.616820 0.085490 -0.538076
O14   O     O_R   0.941300 0.116820 0.914510 -0.538077
C57   C     C_R   0.073218 0.448389 0.111712 0.693379
C58   C     C_R   0.926781 0.948389 0.888288 0.693378
O15   O     O_R   0.063520 0.618570 0.944410 -0.537710
O16   O     O_R   0.936480 0.118570 0.055590 -0.537710
O17   O     O_R   0.948420 0.787670 0.915740 -0.535996
O18   O     O_R   0.051580 0.287670 0.084260 -0.535998
C59   C     C_R   0.078976 0.449780 0.924024 0.726418
C60   C     C_R   0.921024 0.949778 0.075976 0.726419
O19   O     O_3   0.962260 0.453430 0.990800 -0.366463
O20   O     O_3   0.037740 0.953430 0.009200 -0.366463
V3    V     V_3+5 0.007000 0.728750 0.001710 1.419881
V4    V     V_3+5 0.993000 0.228750 0.998290 1.419881
H33   H     H_    0.658372 0.703748 0.209891 0.135625
H34   H     H_    0.341639 0.203817 0.790125 0.135625
H35   H     H_    0.740436 0.583438 0.307755 0.137439
H36   H     H_    0.259580 0.083399 0.692272 0.137430
H37   H     H_    0.541809 0.792821 0.736671 0.100914
H38   H     H_    0.458186 0.292709 0.263333 0.100916
H39   H     H_    0.714125 0.842594 0.863211 0.104355
H40   H     H_    0.285868 0.342443 0.136793 0.104356

loop_
_geom_bond_atom_site_label_1
_geom_bond_atom_site_label_2
_ccdc_geom_bond_type
C12   C14   A    
C57   O18   A    
C44   H36   S    
C7    C27   A    
C9    C11   A    
C23   C25   A    
C33   C43   S    
O12   C60   A    
C34   H30   S    
O2    C4    A    
C35   C41   S    
C2    O7    A    
O14   C58   A    
O20   V3    S    
C9    H37   S    
O3    V1    S    
C2    C39   S    
C21   C23   A    
H13   C43   S    
C42   C54   S    
O5    C3    A    
C12   H10   S    
C41   C53   S    
C5    H5    S    
C6    H6    S    
C48   C50   S    
H1    C29   S    
C27   H7    S    
C28   H8    S    
C36   C42   S    
C36   C38   S    
C5    C21   A    
C14   H40   S    
C6    C22   A    
O12   V3    S    
C50   H26   S    
C35   H17   S    
O14   V4    S    
C10   C32   A    
C34   H16   S    
C43   H35   S    
C17   C31   A    
C13   C15   A    
C53   C55   T    
C17   C25   A    
C40   C52   T    
C16   C18   A    
C8    C30   A    
O19   V4    S    
C42   C50   S    
C22   C24   A    
C38   C46   S    
C41   C49   S    
O6    V2    S    
C47   H31   S    
H14   C44   S    
C37   H21   S    
C24   C26   A    
C8    C57   S    
C45   C47   S    
C7    C58   S    
C4    C31   S    
C35   C37   S    
C48   H32   S    
C33   C41   S    
C44   C46   S    
C43   C45   S    
O17   V3    S    
C37   H23   S    
C15   C19   A    
O16   C60   A    
C14   C16   A    
C55   C60   S    
O4    V2    S    
O13   V3    S    
C26   H12   S    
C54   C56   T    
C49   H25   S    
C36   H20   S    
O6    C4    A    
C33   H29   S    
C38   H22   S    
O13   C57   A    
O1    V2    S    
C45   C51   S    
O2    V1    S    
O15   V3    S    
H2    C30   S    
C50   H28   S    
C35   H19   S    
H3    C23   S    
C25   H11   S    
C47   C49   S    
C46   C48   S    
O9    V1    S    
C48   H34   S    
O10   V2    S    
C18   C26   A    
O4    C2    A    
C19   C27   A    
O18   V4    S    
C18   C32   A    
C39   C51   T    
C7    C29   A    
C16   C20   A    
O15   C59   A    
C5    C29   A    
C33   H15   S    
O3    C1    A    
C6    C30   A    
O20   V4    S    
C56   C59   S    
C34   C44   S    
O11   C59   A    
O16   V4    S    
C1    C40   S    
C10   C12   A    
O7    V1    S    
C13   H39   S    
C1    O8    A    
C19   C21   A    
C3    C32   S    
C37   C45   S    
C20   C22   A    
C49   H27   S    
C47   H33   S    
H4    C24   S    
C11   H9    S    
C46   C52   S    
O5    V1    S    
C15   C17   A    
C10   H38   S    
C20   C28   A    
C34   C42   S    
C36   H18   S    
C11   C13   A    
O9    V2    S    
O11   V4    S    
O10   V1    S    
C38   H24   S    
O8    V2    S    
O1    C3    A    
C8    C28   A    
C9    C31   A    
O19   V3    S    
C58   O17   A    
