data_str_m4_o22_o22_f0_acs.sym.9
_audit_creation_date              2012-12-11T15:07:12-0500
_audit_creation_method            fapswitch 2.2
_symmetry_space_group_name_H-M    P1
_symmetry_Int_Tables_number       1
_space_group_crystal_system       triclinic
_cell_length_a                    19.708737
_cell_length_b                    11.268475
_cell_length_c                    18.691119
_cell_angle_alpha                 89.999724
_cell_angle_beta                  89.354015
_cell_angle_gamma                 89.999799
_cell_volume                      4150.7983817

loop_
_atom_site_label
_atom_site_type_symbol
_atom_type_description
_atom_site_fract_x
_atom_site_fract_y
_atom_site_fract_z
_atom_type_partial_charge
Br1   Br    Br    0.600225 0.805829 0.854102 -0.602142
Br2   Br    Br    0.399774 0.805840 0.145895 -0.602141
Br3   Br    Br    0.100225 0.305829 0.854102 -0.602142
Br4   Br    Br    0.899774 0.305840 0.145895 -0.602141
C1    C     C_R   0.761590 0.523673 0.639139 0.545299
C2    C     C_3   0.253298 0.056824 0.563142 0.064190
C3    C     C_R   0.740653 0.037239 0.152674 0.556362
C4    C     C_R   0.773744 0.131480 0.858668 0.542554
C5    C     C_R   0.226252 0.131490 0.141329 0.542560
C6    C     C_R   0.273744 0.631480 0.858668 0.542554
C7    C     C_R   0.726252 0.631490 0.141329 0.542560
C8    C     C_R   0.946293 0.356587 0.861517 0.577093
C9    C     C_R   0.053706 0.356587 0.138485 0.577105
C10   C     C_R   0.446293 0.856587 0.861517 0.577093
C11   C     C_R   0.553706 0.856587 0.138485 0.577105
C12   C     C_3   0.687299 0.132328 0.466425 -0.237119
C13   C     C_3   0.246702 0.556823 0.436858 0.064191
C14   C     C_3   0.312701 0.132327 0.533574 -0.237118
C15   C     C_3   0.187299 0.632328 0.466425 -0.237119
C16   C     C_3   0.812701 0.632327 0.533574 -0.237118
C17   C     C_3   0.692905 0.144861 0.547610 -0.229852
C18   C     C_3   0.307094 0.144862 0.452389 -0.229851
C19   C     C_3   0.192905 0.644861 0.547610 -0.229852
C20   C     C_3   0.807094 0.644862 0.452389 -0.229851
C21   C     C_3   0.756204 0.938744 0.480646 -0.221481
C22   C     C_3   0.243796 0.938745 0.519355 -0.221481
C23   C     C_3   0.256204 0.438744 0.480646 -0.221481
C24   C     C_3   0.753298 0.556824 0.563142 0.064190
C25   C     C_3   0.743796 0.438745 0.519355 -0.221481
C26   C     C_3   0.760580 0.090293 0.574276 0.065229
C27   C     C_3   0.239420 0.090293 0.425724 0.065227
C28   C     C_3   0.260580 0.590293 0.574276 0.065229
C29   C     C_3   0.739420 0.590293 0.425724 0.065227
C30   C     C_3   0.753897 0.957484 0.562139 -0.260484
C31   C     C_3   0.246104 0.957484 0.437862 -0.260485
C32   C     C_3   0.253897 0.457484 0.562139 -0.260484
C33   C     C_R   0.238410 0.523673 0.360861 0.545301
C34   C     C_3   0.746104 0.457484 0.437862 -0.260485
C35   C     C_3   0.823265 0.133302 0.529000 -0.221849
C36   C     C_3   0.176735 0.133302 0.471000 -0.221849
C37   C     C_3   0.323265 0.633302 0.529000 -0.221849
C38   C     C_3   0.676735 0.633302 0.471000 -0.221849
C39   C     C_3   0.003825 0.203697 0.458929 -0.234913
C40   C     C_3   0.996175 0.203697 0.541072 -0.234911
C41   C     C_3   0.503825 0.703697 0.458929 -0.234913
C42   C     C_3   0.496175 0.703697 0.541072 -0.234911
C43   C     C_3   0.064328 0.405933 0.473346 -0.220846
C44   C     C_R   0.261590 0.023673 0.639139 0.545299
C45   C     C_3   0.935673 0.405936 0.526654 -0.220847
C46   C     C_3   0.564328 0.905933 0.473346 -0.220846
C47   C     C_3   0.435673 0.905936 0.526654 -0.220846
C48   C     C_3   0.941472 0.390151 0.445493 -0.258939
C49   C     C_3   0.058529 0.390148 0.554508 -0.258940
C50   C     C_3   0.441472 0.890151 0.445493 -0.258939
C51   C     C_3   0.558529 0.890148 0.554508 -0.258940
C52   C     C_3   0.010201 0.332750 0.430866 0.059653
C53   C     C_3   0.989799 0.332750 0.569134 0.059653
C54   C     C_3   0.510201 0.832750 0.430866 0.059653
C55   C     C_R   0.738410 0.023673 0.360861 0.545301
C56   C     C_3   0.489799 0.832750 0.569134 0.059653
C57   C     C_3   0.819594 0.029840 0.046498 -0.231574
C58   C     C_3   0.180402 0.029849 0.953499 -0.231577
C59   C     C_3   0.319594 0.529840 0.046498 -0.231574
C60   C     C_3   0.680402 0.529849 0.953499 -0.231577
C61   C     C_R   0.774479 0.121064 0.649464 0.545442
C62   C     C_R   0.225521 0.121064 0.350536 0.545444
C63   C     C_R   0.274479 0.621064 0.649464 0.545442
C64   C     C_R   0.725521 0.621064 0.350536 0.545444
C65   C     C_3   0.818837 0.024576 0.966021 -0.240523
C66   C     C_3   0.810462 0.131029 0.448202 -0.256206
C67   C     C_3   0.181158 0.024588 0.033977 -0.240516
C68   C     C_3   0.318837 0.524576 0.966021 -0.240523
C69   C     C_3   0.681158 0.524588 0.033977 -0.240516
C70   C     C_3   0.690599 0.017660 0.034772 -0.229352
C71   C     C_3   0.309392 0.017647 0.965231 -0.229378
C72   C     C_3   0.190599 0.517660 0.034772 -0.229353
C73   C     C_3   0.809392 0.517648 0.965231 -0.229378
C74   C     C_3   0.742762 0.205067 0.060483 -0.255722
C75   C     C_3   0.257241 0.205069 0.939514 -0.255713
C76   C     C_3   0.242762 0.705067 0.060483 -0.255722
C77   C     C_3   0.189539 0.131031 0.551798 -0.256206
C78   C     C_3   0.757241 0.705069 0.939514 -0.255713
C79   C     C_3   0.749323 0.073619 0.076204 0.068632
C80   C     C_3   0.250674 0.073621 0.923795 0.068631
C81   C     C_3   0.249323 0.573619 0.076204 0.068632
C82   C     C_3   0.750674 0.573621 0.923795 0.068631
C83   C     C_3   0.760018 0.103282 0.936328 0.054840
C84   C     C_3   0.239978 0.103292 0.063670 0.054840
C85   C     C_3   0.260018 0.603282 0.936328 0.054840
C86   C     C_3   0.739978 0.603293 0.063670 0.054840
C87   C     C_3   0.694755 0.036567 0.952364 -0.249624
C88   C     C_3   0.310462 0.631029 0.448202 -0.256206
C89   C     C_3   0.305241 0.036575 0.047636 -0.249623
C90   C     C_3   0.194755 0.536567 0.952364 -0.249624
C91   C     C_3   0.805241 0.536575 0.047636 -0.249623
C92   C     C_3   0.754950 0.221001 0.978981 -0.234176
C93   C     C_3   0.245052 0.221010 0.021015 -0.234175
C94   C     C_3   0.254950 0.721001 0.978981 -0.234176
C95   C     C_3   0.745051 0.721010 0.021015 -0.234175
C96   C     C_3   0.004155 0.481807 0.040237 -0.244533
C97   C     C_3   0.995845 0.481806 0.959762 -0.244537
C98   C     C_3   0.504155 0.981807 0.040237 -0.244533
C99   C     C_3   0.689539 0.631031 0.551798 -0.256206
C100  C     C_3   0.495845 0.981806 0.959762 -0.244537
C101  C     C_3   0.073122 0.296859 0.009101 -0.293563
C102  C     C_3   0.926879 0.296857 0.990896 -0.293547
C103  C     C_3   0.573122 0.796859 0.009101 -0.293563
C104  C     C_3   0.426879 0.796857 0.990896 -0.293547
C105  C     C_3   0.960321 0.275524 0.063822 0.024763
C106  C     C_3   0.039679 0.275519 0.936178 0.024751
C107  C     C_3   0.460321 0.775524 0.063822 0.024763
C108  C     C_3   0.539679 0.775519 0.936178 0.024751
C109  C     C_R   0.969624 0.342032 0.645173 0.567568
C110  C     C_3   0.746702 0.056823 0.436858 0.064191
C111  C     C_R   0.030376 0.342032 0.354827 0.567567
C112  C     C_R   0.469624 0.842032 0.645173 0.567568
C113  C     C_R   0.530376 0.842032 0.354827 0.567567
C114  C     C_3   0.023960 0.353692 0.065334 0.057351
C115  C     C_3   0.976041 0.353690 0.934665 0.057352
C116  C     C_3   0.523960 0.853692 0.065334 0.057351
C117  C     C_3   0.476041 0.853690 0.934665 0.057352
C118  C     C_R   0.759345 0.537244 0.847325 0.556354
C119  C     C_R   0.240653 0.537239 0.152674 0.556362
C120  C     C_R   0.259345 0.037244 0.847325 0.556354
Cr1   Cr    Cr6+3 0.885690 0.492860 0.745310 1.007459
Cr2   Cr    Cr6+3 0.111880 0.178590 0.246990 1.018594
Cr3   Cr    Cr6+3 0.388120 0.678590 0.753010 1.018597
Cr4   Cr    Cr6+3 0.611880 0.678590 0.246990 1.018594
Cr5   Cr    Cr6+3 0.114310 0.492860 0.254690 1.007458
Cr6   Cr    Cr6+3 0.385690 0.992860 0.745310 1.007459
Cr7   Cr    Cr6+3 0.614310 0.992860 0.254690 1.007458
Cr8   Cr    Cr6+3 0.729880 0.332270 0.748190 1.008086
Cr9   Cr    Cr6+3 0.270120 0.332270 0.251810 1.008086
Cr10  Cr    Cr6+3 0.229880 0.832270 0.748190 1.008086
Cr11  Cr    Cr6+3 0.770120 0.832270 0.251810 1.008086
Cr12  Cr    Cr6+3 0.888120 0.178590 0.753010 1.018597
H1    H     H_    0.638468 0.095675 0.452216 0.129305
H2    H     H_    0.191533 0.908436 0.531303 0.127134
H3    H     H_    0.460351 0.052494 0.944942 0.114823
H4    H     H_    0.955645 0.508581 0.066160 0.173650
H5    H     H_    0.044354 0.508580 0.933838 0.173645
H6    H     H_    0.455645 0.008581 0.066160 0.173650
H7    H     H_    0.544354 0.008580 0.933838 0.173645
H8    H     H_    0.612708 0.858877 0.996681 0.144075
H9    H     H_    0.387290 0.858874 0.003302 0.144055
H10   H     H_    0.112708 0.358877 0.996681 0.144075
H11   H     H_    0.887290 0.358873 0.003302 0.144055
H12   H     H_    0.974758 0.180167 0.067941 0.138891
H13   H     H_    0.308467 0.408435 0.468698 0.127132
H14   H     H_    0.025241 0.180162 0.932062 0.138888
H15   H     H_    0.474759 0.680167 0.067941 0.138891
H16   H     H_    0.525241 0.680161 0.932062 0.138888
H17   H     H_    0.908190 0.212848 0.969896 0.097718
H18   H     H_    0.091821 0.212860 0.030104 0.097728
H19   H     H_    0.408190 0.712848 0.969896 0.097718
H20   H     H_    0.591821 0.712859 0.030104 0.097728
H21   H     H_    0.649287 0.100364 0.574071 0.111500
H22   H     H_    0.350712 0.100368 0.425927 0.111499
H23   H     H_    0.149287 0.600364 0.574071 0.111500
H24   H     H_    0.691533 0.408436 0.531303 0.127134
H25   H     H_    0.850712 0.600368 0.425927 0.111499
H26   H     H_    0.721584 0.868563 0.464492 0.108519
H27   H     H_    0.278417 0.868564 0.535510 0.108520
H28   H     H_    0.221584 0.368563 0.464492 0.108519
H29   H     H_    0.778417 0.368564 0.535510 0.108520
H30   H     H_    0.705917 0.923386 0.585801 0.112959
H31   H     H_    0.294084 0.923387 0.414200 0.112960
H32   H     H_    0.205917 0.423386 0.585801 0.112959
H33   H     H_    0.794084 0.423387 0.414200 0.112960
H34   H     H_    0.854565 0.091011 0.419658 0.130192
H35   H     H_    0.796233 0.909572 0.588184 0.123088
H36   H     H_    0.145435 0.091015 0.580343 0.130192
H37   H     H_    0.354565 0.591011 0.419658 0.130192
H38   H     H_    0.645435 0.591015 0.580343 0.130192
H39   H     H_    0.803817 0.221820 0.426911 0.110591
H40   H     H_    0.196185 0.221823 0.573087 0.110591
H41   H     H_    0.303817 0.721820 0.426911 0.110591
H42   H     H_    0.696185 0.721823 0.573087 0.110591
H43   H     H_    0.842298 0.219339 0.546580 0.109867
H44   H     H_    0.157701 0.219338 0.453419 0.109867
H45   H     H_    0.342298 0.719340 0.546580 0.109867
H46   H     H_    0.203768 0.909571 0.411818 0.123088
H47   H     H_    0.657701 0.719338 0.453419 0.109867
H48   H     H_    0.296233 0.409572 0.588184 0.123088
H49   H     H_    0.703768 0.409571 0.411818 0.123088
H50   H     H_    0.046459 0.149414 0.441516 0.130782
H51   H     H_    0.953540 0.149414 0.558485 0.130782
H52   H     H_    0.546459 0.649413 0.441516 0.130782
H53   H     H_    0.361531 0.095667 0.547782 0.129305
H54   H     H_    0.453540 0.649414 0.558485 0.130782
H55   H     H_    0.959374 0.159655 0.434892 0.112384
H56   H     H_    0.040626 0.159653 0.565109 0.112384
H57   H     H_    0.459374 0.659655 0.434892 0.112384
H58   H     H_    0.540626 0.659654 0.565109 0.112384
H59   H     H_    0.616063 0.891331 0.453686 0.110351
H60   H     H_    0.383938 0.891339 0.546315 0.110352
H61   H     H_    0.116063 0.391331 0.453686 0.110351
H62   H     H_    0.883938 0.391339 0.546315 0.110352
H63   H     H_    0.600282 0.834460 0.574955 0.114237
H64   H     H_    0.138468 0.595675 0.452216 0.129305
H65   H     H_    0.399719 0.834463 0.425046 0.114237
H66   H     H_    0.100282 0.334460 0.574955 0.114237
H67   H     H_    0.899719 0.334463 0.425046 0.114237
H68   H     H_    0.938180 0.477658 0.418483 0.126741
H69   H     H_    0.061821 0.477656 0.581516 0.126740
H70   H     H_    0.438180 0.977658 0.418483 0.126741
H71   H     H_    0.561821 0.977656 0.581516 0.126740
H72   H     H_    0.948058 0.500294 0.536746 0.130385
H73   H     H_    0.051947 0.500291 0.463253 0.130386
H74   H     H_    0.448058 0.000294 0.536746 0.130385
H75   H     H_    0.861531 0.595667 0.547782 0.129305
H76   H     H_    0.551947 0.000291 0.463253 0.130386
H77   H     H_    0.835941 0.941351 0.065061 0.138281
H78   H     H_    0.164056 0.941357 0.934940 0.138278
H79   H     H_    0.335941 0.441351 0.065061 0.138281
H80   H     H_    0.664056 0.441357 0.934940 0.138278
H81   H     H_    0.687584 0.221132 0.441259 0.109171
H82   H     H_    0.312419 0.221130 0.558742 0.109171
H83   H     H_    0.187584 0.721132 0.441259 0.109171
H84   H     H_    0.812419 0.721130 0.558742 0.109171
H85   H     H_    0.859815 0.091348 0.064497 0.159250
H86   H     H_    0.863862 0.067360 0.538371 0.125103
H87   H     H_    0.140181 0.091356 0.935497 0.159264
H88   H     H_    0.359815 0.591348 0.064497 0.159250
H89   H     H_    0.640181 0.591356 0.935497 0.159264
H90   H     H_    0.870483 0.045972 0.946538 0.137660
H91   H     H_    0.129511 0.045981 0.053460 0.137655
H92   H     H_    0.370483 0.545972 0.946538 0.137660
H93   H     H_    0.629512 0.545981 0.053460 0.137655
H94   H     H_    0.811346 0.931865 0.948385 0.119226
H95   H     H_    0.188649 0.931877 0.051614 0.119229
H96   H     H_    0.311346 0.431864 0.948385 0.119226
H97   H     H_    0.136138 0.067359 0.461630 0.125103
H98   H     H_    0.688649 0.431877 0.051614 0.119229
H99   H     H_    0.691251 0.926853 0.051179 0.094982
H100  H     H_    0.308716 0.926836 0.948841 0.094999
H101  H     H_    0.191251 0.426853 0.051179 0.094982
H102  H     H_    0.808716 0.426836 0.948841 0.094999
H103  H     H_    0.694908 0.950811 0.923931 0.157139
H104  H     H_    0.305091 0.950827 0.076078 0.157154
H105  H     H_    0.194908 0.450811 0.923931 0.157139
H106  H     H_    0.805091 0.450827 0.076078 0.157154
H107  H     H_    0.691324 0.237195 0.076048 0.114547
H108  H     H_    0.363862 0.567360 0.538371 0.125103
H109  H     H_    0.308681 0.237185 0.923951 0.114552
H110  H     H_    0.191324 0.737195 0.076048 0.114547
H111  H     H_    0.808681 0.737185 0.923951 0.114552
H112  H     H_    0.779095 0.256728 0.091746 0.168970
H113  H     H_    0.220911 0.256736 0.908248 0.168962
H114  H     H_    0.279095 0.756728 0.091746 0.168970
H115  H     H_    0.720911 0.756736 0.908248 0.168962
H116  H     H_    0.803953 0.258104 0.972067 0.112009
H117  H     H_    0.196054 0.258135 0.027929 0.112002
H118  H     H_    0.303953 0.758104 0.972067 0.112009
H119  H     H_    0.636138 0.567359 0.461630 0.125103
H120  H     H_    0.696054 0.758135 0.027929 0.112002
H121  H     H_    0.715769 0.279242 0.956428 0.129817
H122  H     H_    0.284239 0.279236 0.043565 0.129814
H123  H     H_    0.215769 0.779242 0.956428 0.129817
H124  H     H_    0.784239 0.779236 0.043565 0.129814
H125  H     H_    0.642815 0.055702 0.054419 0.125758
H126  H     H_    0.357182 0.055654 0.945576 0.125761
H127  H     H_    0.142815 0.555702 0.054419 0.125758
H128  H     H_    0.857182 0.555654 0.945576 0.125761
H129  H     H_    0.687219 0.237138 0.563537 0.138720
H130  H     H_    0.808467 0.908435 0.468698 0.127132
H131  H     H_    0.312779 0.237139 0.436463 0.138721
H132  H     H_    0.187219 0.737137 0.563537 0.138720
H133  H     H_    0.812779 0.737139 0.436463 0.138721
H134  H     H_    0.650662 0.089167 0.933746 0.131444
H135  H     H_    0.349335 0.089180 0.066246 0.131443
H136  H     H_    0.150662 0.589167 0.933746 0.131444
H137  H     H_    0.849335 0.589180 0.066246 0.131443
H138  H     H_    0.039647 0.552495 0.055056 0.114822
H139  H     H_    0.960351 0.552494 0.944942 0.114823
H140  H     H_    0.539647 0.052495 0.055056 0.114822
O1    O     O_R   0.957210 0.449410 0.665480 -0.523985
O2    O     O_R   0.167480 0.095300 0.164000 -0.535960
O3    O     O_R   0.332520 0.595300 0.836000 -0.535960
O4    O     O_R   0.667480 0.595300 0.164000 -0.535960
O5    O     O_R   0.946380 0.253940 0.826940 -0.473834
O6    O     O_R   0.053620 0.253940 0.173060 -0.473847
O7    O     O_R   0.446380 0.753940 0.826940 -0.473834
O8    O     O_R   0.553620 0.753940 0.173060 -0.473847
O9    O     O_3   0.834560 0.334570 0.748840 -0.299359
O10   O     O_3   0.165440 0.334570 0.251160 -0.299365
O11   O     O_3   0.334560 0.834570 0.748840 -0.299359
O12   O     O_R   0.042790 0.449410 0.334520 -0.523985
O13   O     O_3   0.665440 0.834570 0.251160 -0.299365
O14   O     O_R   0.820730 0.541240 0.668250 -0.515930
O15   O     O_R   0.179270 0.541240 0.331750 -0.515930
O16   O     O_R   0.320730 0.041240 0.668250 -0.515930
O17   O     O_R   0.679270 0.041240 0.331750 -0.515930
O18   O     O_R   0.714240 0.455060 0.663710 -0.526402
O19   O     O_R   0.285760 0.455060 0.336290 -0.526402
O20   O     O_R   0.214240 0.955060 0.663710 -0.526402
O21   O     O_R   0.785760 0.955060 0.336290 -0.526402
O22   O     O_R   0.736780 0.204870 0.675910 -0.512232
O23   O     O_R   0.457210 0.949410 0.665480 -0.523985
O24   O     O_R   0.263220 0.204870 0.324090 -0.512230
O25   O     O_R   0.236780 0.704870 0.675910 -0.512232
O26   O     O_R   0.763220 0.704870 0.324090 -0.512230
O27   O     O_R   0.833070 0.087590 0.673490 -0.529078
O28   O     O_R   0.166930 0.087590 0.326510 -0.529075
O29   O     O_R   0.333070 0.587590 0.673490 -0.529078
O30   O     O_R   0.666930 0.587590 0.326510 -0.529075
O31   O     O_R   0.946890 0.246800 0.676300 -0.499274
O32   O     O_R   0.053110 0.246800 0.323700 -0.499275
O33   O     O_R   0.446890 0.746800 0.676300 -0.499274
O34   O     O_R   0.542790 0.949410 0.334520 -0.523985
O35   O     O_R   0.553110 0.746800 0.323700 -0.499275
O36   O     O_R   0.956650 0.457120 0.827980 -0.494837
O37   O     O_R   0.043350 0.457120 0.172020 -0.494840
O38   O     O_R   0.456650 0.957120 0.827980 -0.494837
O39   O     O_R   0.543350 0.957120 0.172020 -0.494840
O40   O     O_R   0.820220 0.548390 0.818890 -0.525206
O41   O     O_R   0.179780 0.548390 0.181110 -0.525209
O42   O     O_R   0.320220 0.048390 0.818890 -0.525206
O43   O     O_R   0.679780 0.048390 0.181110 -0.525209
O44   O     O_R   0.713680 0.462770 0.826210 -0.517748
O45   O     O_R   0.736260 0.212010 0.826560 -0.505635
O46   O     O_R   0.286320 0.462770 0.173790 -0.517752
O47   O     O_R   0.213680 0.962770 0.826210 -0.517748
O48   O     O_R   0.786320 0.962770 0.173790 -0.517752
O49   O     O_R   0.263740 0.212010 0.173440 -0.505636
O50   O     O_R   0.236260 0.712010 0.826560 -0.505635
O51   O     O_R   0.763740 0.712010 0.173440 -0.505636
O52   O     O_R   0.832520 0.095300 0.836000 -0.535960

loop_
_geom_bond_atom_site_label_1
_geom_bond_atom_site_label_2
_ccdc_geom_bond_type
C101  C106  S    
C83   C87   S    
C75   H113  S    
C103  C108  S    
C103  C116  S    
C111  O32   A    
C70   C79   S    
C113  O35   A    
C86   C91   S    
Cr2   O2    S    
C3    O43   A    
C15   H64   S    
C6    O50   A    
C5    C84   S    
C9    O6    A    
C89   H104  S    
C22   H27   S    
C32   H32   S    
C11   C116  S    
Cr7   O17   S    
C85   C90   S    
C72   C90   S    
C36   H44   S    
C51   H63   S    
C74   C92   S    
C92   H121  S    
C84   C93   S    
C21   C30   S    
C43   C49   S    
C10   C117  S    
C59   C81   S    
C58   H78   S    
C105  C114  S    
Cr3   O33   S    
Cr1   O9    S    
Br2   C107  S    
Cr4   O30   S    
C37   H108  S    
C77   H40   S    
Cr3   O11   S    
C26   C30   S    
C16   C24   S    
Cr11  O48   S    
C72   H101  S    
C15   C19   S    
C39   C40   S    
C46   H59   S    
C40   C53   S    
C102  H17   S    
Cr11  O13   S    
C69   H98   S    
C73   H102  S    
C5    O2    A    
C7    O4    A    
C71   C89   S    
C34   H33   S    
C42   C56   S    
C75   C93   S    
C20   C29   S    
C36   H97   S    
C106  H14   S    
C53   C109  S    
C10   O7    A    
C20   H133  S    
C74   H107  S    
C104  C107  S    
C48   H67   S    
C21   C110  S    
C40   H56   S    
C104  H19   S    
C101  H10   S    
C62   O24   A    
C81   C119  S    
C54   C113  S    
C10   O38   A    
Cr10  O20   S    
C67   C84   S    
C70   H125  S    
C22   C31   S    
Cr9   O10   S    
C67   H95   S    
C1    O18   A    
C72   C81   S    
C30   H35   S    
Cr9   O46   S    
C3    C79   S    
Br4   C105  S    
C118  O44   A    
C12   C17   S    
C119  O41   A    
C24   C99   S    
C38   C99   S    
C69   H93   S    
C9    C114  S    
Cr12  O27   S    
Cr8   O22   S    
C63   O25   A    
C29   C38   S    
C28   C32   S    
C64   O30   A    
C69   C86   S    
Br1   C108  S    
C75   C80   S    
C71   C80   S    
Br3   C106  S    
C45   C53   S    
C11   O39   A    
C6    C85   S    
C19   H23   S    
C25   C34   S    
C74   H112  S    
C60   C69   S    
C35   H86   S    
C6    O3    A    
C44   O20   A    
C112  O33   A    
C46   H76   S    
C33   O19   A    
C2    C77   S    
C76   H114  S    
C11   O8    A    
C57   H77   S    
Cr12  O9    S    
C18   H131  S    
C60   H89   S    
C93   H122  S    
C42   H58   S    
C25   H24   S    
Cr7   O13   S    
C13   C23   S    
Cr9   O49   S    
C99   H38   S    
C102  H11   S    
C96   H138  S    
C95   H120  S    
C8    C115  S    
Cr8   O9    S    
C89   H135  S    
C45   H72   S    
C90   H136  S    
C100  H7    S    
C71   H100  S    
C28   C63   S    
C120  O47   A    
Cr2   O10   S    
C76   H110  S    
C56   C112  S    
Cr4   O8    S    
C14   H82   S    
Cr11  O26   S    
C86   C95   S    
C93   H117  S    
C63   O29   A    
C58   C80   S    
C68   H96   S    
C14   C18   S    
C12   C110  S    
C106  C115  S    
C35   H43   S    
Cr5   O37   S    
C50   H65   S    
C51   H71   S    
C85   C94   S    
C99   H42   S    
C43   H73   S    
C108  C117  S    
C2    C22   S    
C38   H119  S    
C96   C97   S    
Cr9   O24   S    
C26   C35   S    
C26   C61   S    
C88   H41   S    
C40   H51   S    
Cr2   O28   S    
C43   H61   S    
C29   C34   S    
C47   C56   S    
C98   H6    S    
Cr3   O3    S    
C70   H99   S    
Cr4   O4    S    
C29   C64   S    
C43   C52   S    
C102  C105  S    
C94   H123  S    
Cr6   O38   S    
Cr7   O43   S    
C102  C115  S    
C78   C95   S    
Cr8   O44   S    
C20   H25   S    
C104  C117  S    
C87   H134  S    
C1    O14   A    
C21   H130  S    
C119  O46   A    
C41   C42   S    
C61   O27   A    
C62   O28   A    
C8    O36   A    
Cr4   O35   S    
C75   H109  S    
C24   C25   S    
C90   H105  S    
Cr11  O21   S    
C27   C36   S    
C25   H29   S    
C64   O26   A    
C84   C89   S    
C74   C79   S    
C112  O23   A    
C50   H70   S    
C82   C118  S    
C108  H16   S    
Cr10  O25   S    
C65   C83   S    
C8    O5    A    
C51   C56   S    
C65   H90   S    
C37   H45   S    
C67   H91   S    
Cr1   O40   S    
C59   H88   S    
C60   C82   S    
C41   H57   S    
Cr8   O45   S    
C41   C54   S    
C46   C54   S    
C57   C79   S    
C49   C53   S    
C18   H22   S    
C78   C82   S    
C48   H68   S    
C70   C87   S    
Cr2   O32   S    
C76   C81   S    
C44   O16   A    
C111  O12   A    
C33   O15   A    
C45   C48   S    
Cr10  O11   S    
Cr12  O5    S    
C88   H37   S    
C27   C31   S    
Cr12  O52   S    
C96   C114  S    
C92   H116  S    
C109  O1    A    
C98   C116  S    
C104  H9    S    
C76   C94   S    
C3    O48   A    
Cr6   O11   S    
C22   H2    S    
C23   C32   S    
C17   C26   S    
C49   H66   S    
C91   H137  S    
C100  H3    S    
Cr6   O23   S    
C19   C28   S    
C4    C83   S    
C66   H34   S    
C4    O45   A    
C47   H74   S    
Cr1   O1    S    
C55   C110  S    
Cr2   O6    S    
C52   C111  S    
C9    O37   A    
C57   H85   S    
C91   H106  S    
C59   C68   S    
C68   H92   S    
Cr6   O16   S    
Cr10  O50   S    
C59   H79   S    
C103  H8    S    
C30   H30   S    
Cr5   O41   S    
C27   C62   S    
C14   H53   S    
C73   H128  S    
C12   H1    S    
C7    C86   S    
C66   C110  S    
C31   H46   S    
C2    C44   S    
C78   H111  S    
Cr5   O10   S    
C47   H60   S    
C77   H36   S    
Cr3   O29   S    
C19   H132  S    
C16   H75   S    
Cr3   O7    S    
Cr10  O47   S    
C96   H4    S    
C109  O31   A    
C55   O21   A    
C97   H5    S    
Cr6   O42   S    
Cr7   O39   S    
C58   C67   S    
C49   H69   S    
C32   H48   S    
C66   H39   S    
C61   O22   A    
C103  H20   S    
C17   H129  S    
C101  H18   S    
C71   H126  S    
C39   H55   S    
C23   H13   S    
C16   H84   S    
C13   C88   S    
C42   H54   S    
C45   H62   S    
Cr11  O51   S    
C2    C14   S    
Cr7   O34   S    
C18   C27   S    
C97   C115  S    
C16   C20   S    
C78   H115  S    
C100  C117  S    
C39   H50   S    
C73   C91   S    
C107  C116  S    
C23   H28   S    
C1    C24   S    
C31   H31   S    
C55   O17   A    
C21   H26   S    
C28   C37   S    
C83   C92   S    
C12   H81   S    
C13   C33   S    
C58   H87   S    
Cr1   O36   S    
C98   C100  S    
Cr4   O13   S    
C72   H127  S    
C5    O49   A    
C73   C82   S    
C7    O51   A    
C105  H12   S    
C15   H83   S    
C94   H118  S    
C50   C54   S    
C57   C65   S    
C113  O34   A    
C17   H21   S    
C36   C77   S    
C60   H80   S    
Cr5   O12   S    
Cr1   O14   S    
C107  H15   S    
C41   H52   S    
C38   H47   S    
C80   C120  S    
C34   H49   S    
C118  O40   A    
C46   C51   S    
C47   C50   S    
C120  O42   A    
C65   H94   S    
C68   C85   S    
Cr12  O31   S    
C95   H124  S    
C13   C15   S    
C35   C66   S    
Cr8   O18   S    
Cr9   O19   S    
C101  C114  S    
C4    O52   A    
C39   C52   S    
C37   C88   S    
Cr5   O15   S    
C87   H103  S    
C97   H139  S    
C98   H140  S    
C48   C52   S    
