data_str_m9_o16_o24_f0_sra.sym.34
_audit_creation_date              2012-12-11T15:13:44-0500
_audit_creation_method            fapswitch 2.2
_symmetry_space_group_name_H-M    P1
_symmetry_Int_Tables_number       1
_space_group_crystal_system       triclinic
_cell_length_a                    6.951829
_cell_length_b                    13.49612
_cell_length_c                    20.121811
_cell_angle_alpha                 104.147143
_cell_angle_beta                  90.302265
_cell_angle_gamma                 90.248447
_cell_volume                      1830.56957494

loop_
_atom_site_label
_atom_site_type_symbol
_atom_type_description
_atom_site_fract_x
_atom_site_fract_y
_atom_site_fract_z
_atom_type_partial_charge
O1    O     O_R   0.506780 0.600060 0.449950 -0.539590
O2    O     O_R   0.179840 0.597110 0.589410 -0.528538
O3    O     O_R   0.004570 0.399940 0.550050 -0.537262
C1    C     C_R   0.348623 0.618841 0.616842 0.754310
O4    O     O_R   0.177380 0.612160 0.452890 -0.546589
O5    O     O_R   0.002100 0.415100 0.412560 -0.547319
C2    C     C_R   0.345921 0.638489 0.436119 0.692519
O6    O     O_R   0.509250 0.584900 0.587440 -0.516765
O7    O     O_3   0.337570 0.435330 0.486930 -0.380536
V1    V     V_3+5 0.064650 0.512000 0.502430 1.492520
O8    O     O_R   0.672090 0.402890 0.410590 -0.534911
C3    C     C_R   0.840220 0.382205 0.382735 0.678362
O9    O     O_R   0.674540 0.387840 0.547110 -0.544313
C4    C     C_R   0.843731 0.360899 0.563555 0.729875
V2    V     V_3+5 0.564040 0.488000 0.497570 1.490461
O10   O     O_3   0.840990 0.564670 0.513070 -0.358705
C5    C     C_R   0.931333 0.109348 0.607371 0.215865
H1    H     H_    0.930245 0.163324 0.514780 0.104867
H2    H     H_    0.949167 0.983859 0.692475 0.159161
C6    C     C_R   0.856139 0.282657 0.602429 -0.112490
C7    C     C_R   0.838357 0.318085 0.932535 -0.298187
C8    C     C_R   0.838915 0.395366 0.898060 -0.136162
C9    C     C_R   0.855154 0.372797 0.826902 0.634883
C10   C     C_R   0.863632 0.269475 0.787597 -0.053345
C11   C     C_R   0.874273 0.191166 0.824062 0.007858
C12   C     C_R   0.869006 0.240824 0.714069 0.044857
C13   C     C_R   0.908979 0.137457 0.679534 0.119960
C14   C     C_R   0.923818 0.063350 0.717350 -0.182620
C15   C     C_R   0.902371 0.089192 0.787879 -0.182852
C16   C     C_R   0.831738 0.310443 0.673325 -0.163020
C17   C     C_R   0.908527 0.183278 0.569749 -0.208444
C18   C     C_R   0.859677 0.216525 0.896488 -0.069772
H3    H     H_    0.780093 0.386526 0.694547 0.210161
H4    H     H_    0.827165 0.337834 0.987921 0.135770
H5    H     H_    0.831239 0.474211 0.927054 0.172083
H6    H     H_    0.912061 0.028125 0.814026 0.116208
C19   C     C_3   0.733787 0.172711 0.244308 -0.191882
C20   C     C_3   0.906461 0.199391 0.295050 -0.181363
H7    H     H_    0.948662 0.156480 0.333333 0.131859
H8    H     H_    0.633582 0.107142 0.238487 0.113238
C21   C     C_3   0.849029 0.313260 0.311690 -0.010187
C22   C     C_3   0.681430 0.286614 0.261021 0.264286
C23   C     C_3   0.806264 0.304893 0.202368 -0.156205
C24   C     C_3   0.978227 0.331230 0.253380 -0.162173
C25   C     C_3   0.035794 0.216718 0.236218 -0.105628
C26   C     C_3   0.863473 0.191150 0.186480 -0.038580
H9    H     H_    0.762196 0.347735 0.164243 0.125050
H10   H     H_    0.079027 0.396535 0.257603 0.120801
H11   H     H_    0.181193 0.185443 0.222832 0.099791
C27   C     C_3   0.535357 0.723265 0.731538 0.627743
C28   C     C_3   0.462752 0.834534 0.750074 -0.307848
H12   H     H_    0.551096 0.903422 0.750461 0.152172
C29   C     C_3   0.357057 0.812333 0.812347 -0.225300
C30   C     C_3   0.431410 0.702252 0.793682 0.605175
C31   C     C_3   0.249947 0.666750 0.749625 -0.210759
C32   C     C_3   0.174775 0.778431 0.768401 -0.091082
C33   C     C_3   0.280173 0.799677 0.705333 -0.181768
C34   C     C_3   0.355599 0.688859 0.687322 -0.196719
H13   H     H_    0.163612 0.597289 0.749469 0.209803
H14   H     H_    0.025741 0.802228 0.784018 0.191129
H15   H     H_    0.217500 0.839566 0.668222 0.143782
C35   C     C_R   0.374695 0.893229 0.394483 -0.142021
H16   H     H_    0.372877 0.841935 0.487234 0.110587
H17   H     H_    0.377461 0.972464 0.422920 0.146315
C36   C     C_R   0.355350 0.716573 0.397504 -0.025281
C37   C     C_R   0.381810 0.682745 0.068072 -0.210508
C38   C     C_R   0.418409 0.607374 0.102323 -0.092658
C39   C     C_R   0.431988 0.630432 0.173732 0.204415
C40   C     C_R   0.389010 0.731812 0.213276 0.027271
C41   C     C_R   0.366520 0.810020 0.177123 0.002850
C42   C     C_R   0.374907 0.760057 0.286587 0.027049
C43   C     C_R   0.373564 0.865340 0.322126 0.130131
C44   C     C_R   0.364574 0.941277 0.285405 0.178494
C45   C     C_R   0.354449 0.912998 0.213853 -0.224961
C46   C     C_R   0.350382 0.687643 0.326011 -0.217422
C47   C     C_R   0.370222 0.819143 0.431718 -0.185076
C48   C     C_R   0.363264 0.784209 0.104395 -0.071015
H18   H     H_    0.319378 0.608704 0.302708 0.115109
H19   H     H_    0.381396 0.662806 0.012508 0.158434
H20   H     H_    0.448837 0.530678 0.072616 0.139369
H21   H     H_    0.340540 0.972959 0.186923 0.108579
O11   O     O_R   0.203580 0.914920 0.912610 -0.544187
O12   O     O_R   0.535710 0.887810 0.047120 -0.535506
O13   O     O_R   0.710730 0.084950 0.087430 -0.545526
C49   C     C_R   0.367638 0.862349 0.064901 0.714751
O14   O     O_R   0.533010 0.902850 0.910600 -0.530443
O15   O     O_R   0.708010 0.100090 0.949930 -0.543453
C50   C     C_R   0.364270 0.881509 0.883062 0.774402
O16   O     O_R   0.206300 0.899780 0.050100 -0.539488
O17   O     O_3   0.375170 0.064580 0.013100 -0.380827
V3    V     V_3+5 0.648200 0.988020 0.997570 1.470689
O18   O     O_R   0.038030 0.112330 0.952840 -0.543904
C51   C     C_R   0.869040 0.138490 0.935879 0.704624
O19   O     O_R   0.040730 0.097300 0.089360 -0.547803
C52   C     C_R   0.872343 0.119967 0.116434 0.683120
V4    V     V_3+5 0.148780 0.012220 0.002360 1.434591
O20   O     O_3   0.871930 0.935430 0.986900 -0.361407
N1    N     N_3   0.488637 0.327653 0.274745 -0.679111
H22   H     H_    0.414219 0.311065 0.228105 0.212637
H23   H     H_    0.421201 0.287840 0.306696 0.228993
F1    F     F_    0.721551 0.693823 0.712845 -0.668146
F2    F     F_    0.511111 0.652249 0.839441 -0.647251
N2    N     N_3   0.356704 0.047291 0.321439 -0.694000
H24   H     H_    0.328378 0.093085 0.287729 0.217625
H25   H     H_    0.493111 0.068374 0.342427 0.218910
N3    N     N_3   0.522128 0.553855 0.201569 -0.695498
H26   H     H_    0.608628 0.586210 0.244011 0.246894
H27   H     H_    0.418488 0.503517 0.211957 0.232692
N4    N     N_3   0.979646 0.006145 0.572679 -0.681133
H28   H     H_    0.122227 0.994025 0.585357 0.217096
H29   H     H_    0.975269 0.996578 0.519519 0.234083
F3    F     F_    0.878295 0.453997 0.799239 -0.676716

loop_
_geom_bond_atom_site_label_1
_geom_bond_atom_site_label_2
_ccdc_geom_bond_type
C31   C32   S    
O15   V3    S    
C21   C22   S    
C1    O6    A    
O17   V3    S    
C6    C16   A    
C29   C30   S    
C8    H5    S    
C15   H6    S    
C12   C13   A    
C27   C30   S    
C36   C47   A    
C14   C15   A    
C10   C12   A    
C19   H8    S    
C31   H13   S    
O14   V3    S    
C22   N1    S    
O5    C3    A    
C20   H7    S    
O14   C50   A    
N3    H26   S    
V2    O10   S    
O18   V4    S    
C32   C33   S    
C44   C45   A    
C19   C22   S    
C40   C42   A    
C20   C25   S    
C35   H17   S    
O8    V2    S    
C26   C52   S    
C33   H15   S    
C39   C40   A    
C41   C45   A    
C9    C10   A    
C28   C33   S    
O13   V3    S    
O7    V1    S    
C11   C18   A    
C18   C51   S    
C48   C49   S    
O9    C4    A    
C41   C48   A    
C35   C47   A    
O19   C52   A    
C39   N3    S    
O4    V1    S    
C46   H18   S    
C11   C15   A    
C7    C18   A    
O11   V4    S    
C28   H12   S    
C5    C13   A    
C4    C6    S    
C10   C11   A    
C20   C21   S    
O4    C2    A    
C49   O16   A    
C7    H4    S    
C25   C26   S    
C38   C39   A    
C28   C29   S    
O13   C52   A    
C27   C34   S    
O2    C1    A    
C23   C24   S    
C19   C20   S    
C37   H19   S    
C2    C36   S    
C25   H11   S    
V4    O20   S    
C27   C28   S    
C35   C43   A    
N2    H25   S    
V3    O20   S    
O19   V4    S    
H2    C14   S    
O3    C4    A    
O1    V2    S    
O12   C49   A    
C12   C16   A    
O6    V2    S    
N1    H23   S    
O9    V2    S    
C5    C17   A    
C21   C24   S    
C22   C23   S    
C45   H21   S    
O2    V1    S    
N2    H24   S    
C24   C25   S    
C3    C21   S    
C29   C32   S    
C37   C48   A    
C30   C31   S    
C16   H3    S    
C9    F3    S    
O1    C2    A    
C30   F2    S    
C38   H20   S    
C43   C44   A    
C5    N4    S    
O5    V1    S    
O8    C3    A    
O17   V4    S    
O12   V3    S    
C36   C46   A    
O16   V4    S    
N4    H29   S    
O7    V2    S    
C42   C43   A    
O3    V1    S    
V1    O10   S    
N4    H28   S    
C42   C46   A    
C33   C34   S    
N3    H27   S    
O11   C50   A    
O15   C51   A    
O18   C51   A    
C37   C38   A    
C29   C50   S    
C40   C41   A    
C23   C26   S    
C32   H14   S    
C44   N2    S    
C27   F1    S    
N1    H22   S    
H16   C47   S    
C31   C34   S    
C1    C34   S    
C13   C14   A    
C8    C9    A    
H1    C17   S    
C19   C26   S    
C7    C8    A    
C23   H9    S    
C24   H10   S    
C6    C17   A    
