data_str_m4_o1_o11_f0_acs.sym.154
_audit_creation_date              2012-12-11T14:42:08-0500
_audit_creation_method            fapswitch 2.2
_symmetry_space_group_name_H-M    P1
_symmetry_Int_Tables_number       1
_space_group_crystal_system       triclinic
_cell_length_a                    18.754393
_cell_length_b                    10.97788
_cell_length_c                    18.711222
_cell_angle_alpha                 90.081866
_cell_angle_beta                  90.457696
_cell_angle_gamma                 89.923111
_cell_volume                      3852.20116623

loop_
_atom_site_label
_atom_site_type_symbol
_atom_type_description
_atom_site_fract_x
_atom_site_fract_y
_atom_site_fract_z
_atom_type_partial_charge
C1    C     C_R   0.729574 0.949165 0.851001 0.549258
C2    C     C_R   0.273765 0.957129 0.144966 0.556142
C3    C     C_R   0.226236 0.457277 0.855039 0.556475
C4    C     C_R   0.770406 0.448980 0.149057 0.548366
C5    C     C_R   0.683439 0.418128 0.047527 -0.183127
C6    C     C_R   0.314132 0.407444 0.952588 -0.153721
C7    C     C_R   0.185864 0.907814 0.047385 -0.155095
C8    C     C_R   0.816453 0.918457 0.952663 -0.182618
C9    C     C_R   0.745452 0.384122 0.084403 0.043916
C10   C     C_R   0.244582 0.406096 0.924907 0.027089
C11   C     C_R   0.255378 0.905625 0.075150 0.027140
C12   C     C_R   0.754546 0.884426 0.915652 0.044669
C13   C     C_R   0.791788 0.299390 0.052837 0.114301
C14   C     C_R   0.189056 0.354189 0.965257 0.134391
C15   C     C_R   0.310818 0.852878 0.034859 0.134456
C16   C     C_R   0.708338 0.799616 0.947043 0.114456
C17   C     C_R   0.790035 0.283050 0.978690 0.010675
C18   C     C_R   0.205400 0.289621 0.026924 0.026689
C19   C     C_R   0.294409 0.788582 0.973040 0.026971
C20   C     C_R   0.710079 0.783178 0.021166 0.010632
C21   C     C_R   0.730472 0.329446 0.938701 -0.031238
C22   C     C_R   0.270509 0.319708 0.062697 -0.041707
C23   C     C_R   0.229393 0.819416 0.937253 -0.041840
C24   C     C_R   0.769517 0.829552 0.061290 -0.031099
C25   C     C_R   0.485425 0.274729 0.540280 -0.176759
C26   C     C_R   0.489741 0.277101 0.468018 -0.178126
C27   C     C_R   0.049166 0.777554 0.522536 -0.178227
C28   C     C_R   0.034792 0.776315 0.450970 -0.169256
C29   C     C_R   0.493139 0.168281 0.429128 0.054833
C30   C     C_R   0.495175 0.165144 0.576496 0.054351
C31   C     C_R   0.016438 0.666978 0.417254 0.053276
C32   C     C_R   0.050932 0.669327 0.561154 0.039756
C33   C     C_R   0.497474 0.055046 0.464446 0.095017
C34   C     C_R   0.496530 0.053283 0.539217 0.097210
C35   C     C_R   0.025589 0.555072 0.452612 0.094982
C36   C     C_R   0.041777 0.555880 0.525849 0.097158
C37   C     C_R   0.782147 0.278484 0.522281 -0.135164
C38   C     C_R   0.219261 0.278792 0.478527 -0.143773
C39   C     C_R   0.279724 0.777049 0.521085 -0.138002
C40   C     C_R   0.718216 0.778091 0.477643 -0.138281
C41   C     C_R   0.791251 0.308431 0.451159 -0.123259
C42   C     C_R   0.212632 0.303839 0.550646 -0.129059
C43   C     C_R   0.287672 0.804660 0.449452 -0.126226
C44   C     C_R   0.709172 0.807901 0.548841 -0.126804
C45   C     C_R   0.557515 0.181572 0.858640 0.537026
C46   C     C_R   0.472967 0.177894 0.151242 0.544906
C47   C     C_R   0.027026 0.678079 0.848747 0.554121
C48   C     C_R   0.942668 0.681452 0.141349 0.536880
C49   C     C_R   0.747219 0.396315 0.418576 0.031318
C50   C     C_R   0.254579 0.394796 0.582511 0.035432
C51   C     C_R   0.247436 0.899054 0.418565 0.035619
C52   C     C_R   0.752819 0.896304 0.581385 0.033515
C53   C     C_R   0.688414 0.442225 0.455778 -0.142181
C54   C     C_R   0.311628 0.444470 0.544422 -0.144712
C55   C     C_R   0.194945 0.957635 0.458598 -0.141960
C56   C     C_R   0.811257 0.942882 0.544105 -0.136738
C57   C     C_R   0.678751 0.410861 0.527298 -0.129414
C58   C     C_R   0.320190 0.415389 0.472367 -0.131056
C59   C     C_R   0.189514 0.934202 0.531250 -0.137089
C60   C     C_R   0.820902 0.911628 0.472546 -0.128809
C61   C     C_R   0.728210 0.333976 0.561919 0.026635
C62   C     C_R   0.271459 0.336821 0.438155 0.030512
C63   C     C_R   0.232043 0.843629 0.562900 0.029416
C64   C     C_R   0.771782 0.834163 0.437975 0.026200
C65   C     C_R   0.724411 0.311130 0.860487 0.541053
C66   C     C_R   0.276848 0.306031 0.140621 0.560300
C67   C     C_R   0.223129 0.805939 0.859323 0.562329
C68   C     C_R   0.775576 0.811178 0.139491 0.540914
C69   C     C_R   0.729072 0.952074 0.648279 0.544047
C70   C     C_R   0.270725 0.951725 0.351222 0.544112
C71   C     C_R   0.229566 0.451290 0.648786 0.539209
C72   C     C_R   0.770917 0.452097 0.351726 0.543229
C73   C     C_R   0.527181 0.175534 0.646337 0.572452
C74   C     C_R   0.470368 0.176110 0.355644 0.566021
C75   C     C_R   0.063537 0.679710 0.637495 0.561923
C76   C     C_R   0.973932 0.676015 0.352685 0.573304
C77   C     C_R   0.724606 0.310019 0.638799 0.569958
C78   C     C_R   0.275132 0.311350 0.361350 0.567971
C79   C     C_R   0.225794 0.813586 0.638425 0.543666
C80   C     C_R   0.775417 0.810116 0.361123 0.570917
C81   C     C_2   0.533238 0.173295 0.932291 -0.120161
C82   C     C_2   0.517001 0.172684 0.087357 -0.113869
C83   C     C_2   0.983083 0.673187 0.912697 -0.113533
C84   C     C_2   0.967128 0.672876 0.067770 -0.119924
C85   C     C_2   0.526018 0.071068 0.048918 -0.134196
C86   C     C_2   0.549624 0.077185 0.973973 -0.156458
C87   C     C_2   0.950233 0.577372 0.025738 -0.156628
C88   C     C_2   0.973727 0.571426 0.950741 -0.134466
C89   C     C_R   0.675337 0.388924 0.975343 -0.175265
C90   C     C_R   0.326010 0.372521 0.023452 -0.128645
C91   C     C_R   0.173970 0.872876 0.976497 -0.129954
C92   C     C_R   0.824569 0.889108 0.024788 -0.175070
Cr1   Cr    Cr6+3 0.769270 0.163730 0.750710 1.008333
Cr2   Cr    Cr6+3 0.230730 0.163730 0.249290 1.001668
Cr3   Cr    Cr6+3 0.269270 0.663730 0.750710 0.998644
Cr4   Cr    Cr6+3 0.730730 0.663730 0.249290 1.006517
Cr5   Cr    Cr6+3 0.612620 0.009790 0.748780 1.046300
Cr6   Cr    Cr6+3 0.387380 0.009790 0.251220 1.049964
Cr7   Cr    Cr6+3 0.112620 0.509790 0.748780 1.051030
Cr8   Cr    Cr6+3 0.887380 0.509790 0.251220 1.047088
Cr9   Cr    Cr6+3 0.614160 0.322500 0.747710 1.021492
Cr10  Cr    Cr6+3 0.385840 0.322500 0.252290 1.027761
Cr11  Cr    Cr6+3 0.114160 0.822500 0.747710 1.026898
Cr12  Cr    Cr6+3 0.885840 0.822500 0.252290 1.020478
H1    H     H_    0.512601 0.982910 0.071080 0.198012
H2    H     H_    0.577366 0.998982 0.951860 0.177475
H3    H     H_    0.922057 0.499607 0.047547 0.177444
H4    H     H_    0.986784 0.483202 0.928212 0.198005
H5    H     H_    0.836013 0.268603 0.423266 0.134076
H6    H     H_    0.170488 0.259188 0.579885 0.131574
H7    H     H_    0.328009 0.756526 0.419339 0.129887
H8    H     H_    0.664795 0.767460 0.576868 0.131046
H9    H     H_    0.652421 0.506997 0.430986 0.114409
H10   H     H_    0.347054 0.510167 0.569087 0.111774
H11   H     H_    0.160793 0.025624 0.434570 0.111368
H12   H     H_    0.846960 0.008074 0.568889 0.117916
H13   H     H_    0.634731 0.451102 0.556105 0.131258
H14   H     H_    0.362649 0.458668 0.442951 0.124409
H15   H     H_    0.152526 0.987610 0.562514 0.120858
H16   H     H_    0.864622 0.952382 0.443689 0.132059
H17   H     H_    0.536042 0.259363 0.067076 0.114535
H18   H     H_    0.503131 0.249909 0.953137 0.115997
H19   H     H_    0.997628 0.749009 0.047190 0.116061
H20   H     H_    0.964372 0.760021 0.933333 0.114051
H21   H     H_    0.627508 0.418273 0.947461 0.147232
H22   H     H_    0.377892 0.387696 0.047675 0.167354
H23   H     H_    0.122159 0.888669 0.952229 0.166926
H24   H     H_    0.872351 0.918388 0.052744 0.147222
H25   H     H_    0.641678 0.467644 0.074076 0.126799
H26   H     H_    0.357850 0.442281 0.921328 0.149929
H27   H     H_    0.142201 0.943329 0.078594 0.149054
H28   H     H_    0.858151 0.968008 0.926261 0.127022
H29   H     H_    0.481751 0.361496 0.567797 0.140675
H30   H     H_    0.486230 0.365710 0.442781 0.139967
H31   H     H_    0.054909 0.865049 0.548392 0.136666
H32   H     H_    0.030878 0.863430 0.424029 0.142237
H33   H     H_    0.819425 0.216011 0.547131 0.119870
H34   H     H_    0.181314 0.218351 0.453609 0.113027
H35   H     H_    0.312715 0.706756 0.544487 0.117574
H36   H     H_    0.681232 0.715152 0.452791 0.119442
O1    O     O_R   0.784320 0.290430 0.830510 -0.507108
O2    O     O_R   0.215680 0.290430 0.169490 -0.529048
O3    O     O_R   0.284320 0.790430 0.830510 -0.527825
O4    O     O_R   0.715680 0.790430 0.169490 -0.507313
O5    O     O_R   0.554640 0.080370 0.673500 -0.455196
O6    O     O_R   0.445360 0.080370 0.326500 -0.458499
O7    O     O_R   0.054640 0.580370 0.673500 -0.447746
O8    O     O_R   0.945360 0.580370 0.326500 -0.453440
O9    O     O_R   0.543920 0.282180 0.666790 -0.542932
O10   O     O_R   0.456080 0.282180 0.333210 -0.547252
O11   O     O_R   0.043920 0.782180 0.666790 -0.528782
O12   O     O_R   0.956080 0.782180 0.333210 -0.544563
O13   O     O_R   0.679040 0.374160 0.674430 -0.489061
O14   O     O_R   0.320960 0.374160 0.325570 -0.493132
O15   O     O_R   0.179040 0.874160 0.674430 -0.507161
O16   O     O_R   0.820960 0.874160 0.325570 -0.489646
O17   O     O_3   0.665350 0.165340 0.749070 -0.309578
O18   O     O_3   0.334650 0.165340 0.250930 -0.297284
O19   O     O_3   0.165350 0.665340 0.749070 -0.316891
O20   O     O_3   0.834650 0.665340 0.250930 -0.308600
O21   O     O_R   0.762640 0.040960 0.825200 -0.550825
O22   O     O_R   0.237360 0.040960 0.174800 -0.555147
O23   O     O_R   0.262640 0.540960 0.825200 -0.553999
O24   O     O_R   0.737360 0.540960 0.174800 -0.551194
O25   O     O_R   0.667400 0.923970 0.829950 -0.488389
O26   O     O_R   0.332600 0.923970 0.170050 -0.476164
O27   O     O_R   0.167400 0.423970 0.829950 -0.476373
O28   O     O_R   0.832600 0.423970 0.170050 -0.488408
O29   O     O_R   0.553960 0.081340 0.821780 -0.479595
O30   O     O_R   0.446040 0.081340 0.178220 -0.480119
O31   O     O_R   0.053960 0.581340 0.821780 -0.477199
O32   O     O_R   0.946040 0.581340 0.178220 -0.480050
O33   O     O_R   0.543180 0.283240 0.826740 -0.514071
O34   O     O_R   0.456820 0.283240 0.173260 -0.525018
O35   O     O_R   0.043180 0.783240 0.826740 -0.520929
O36   O     O_R   0.956820 0.783240 0.173260 -0.514880
O37   O     O_R   0.678360 0.375140 0.822710 -0.486320
O38   O     O_R   0.321640 0.375140 0.177290 -0.466263
O39   O     O_R   0.178360 0.875140 0.822710 -0.465768
O40   O     O_R   0.821640 0.875140 0.177290 -0.486594
O41   O     O_R   0.785050 0.289380 0.670560 -0.499929
O42   O     O_R   0.214950 0.289380 0.329440 -0.505002
O43   O     O_R   0.285050 0.789380 0.670560 -0.494300
O44   O     O_R   0.714950 0.789380 0.329440 -0.500294
O45   O     O_R   0.763320 0.039990 0.676930 -0.521294
O46   O     O_R   0.236680 0.039990 0.323070 -0.522510
O47   O     O_R   0.263320 0.539990 0.676930 -0.524957
O48   O     O_R   0.736680 0.539990 0.323070 -0.522138
O49   O     O_R   0.668130 0.922920 0.670000 -0.510613
O50   O     O_R   0.331870 0.922920 0.330000 -0.512608
O51   O     O_R   0.168130 0.422920 0.670000 -0.503647
O52   O     O_R   0.831870 0.422920 0.330000 -0.508653
N1    N     N_3   0.839206 0.228318 0.097145 -0.578582
H37   H     H_    0.833073 0.136204 0.084384 0.237768
H38   H     H_    0.891964 0.254304 0.088538 0.286454
N2    N     N_3   0.115588 0.381863 0.948931 -0.576740
H39   H     H_    0.091436 0.307589 0.923614 0.303795
H40   H     H_    0.088497 0.403180 0.995991 0.249235
N3    N     N_3   0.384353 0.879530 0.051362 -0.576224
H41   H     H_    0.408210 0.804963 0.076647 0.303581
H42   H     H_    0.411617 0.900435 0.004394 0.248910
N4    N     N_3   0.661129 0.728432 0.902573 -0.577785
H43   H     H_    0.667473 0.636323 0.915177 0.238191
H44   H     H_    0.608301 0.754283 0.911190 0.285977
C93   C     C_2   0.852838 0.223288 0.945237 0.231510
H45   H     H_    0.846197 0.157806 0.903038 0.151404
O53   O     O_2   0.913529 0.251353 0.962576 -0.528794
C94   C     C_2   0.152845 0.196143 0.052254 0.219921
H46   H     H_    0.155969 0.154322 0.103838 0.166174
O54   O     O_2   0.105433 0.158169 0.013140 -0.528985
C95   C     C_2   0.346999 0.694939 0.947511 0.219132
H47   H     H_    0.344562 0.654314 0.895495 0.166938
O55   O     O_2   0.393782 0.655570 0.986922 -0.530170
C96   C     C_2   0.647441 0.723161 0.054469 0.231355
H48   H     H_    0.654277 0.657691 0.096540 0.151462
O56   O     O_2   0.586675 0.750973 0.037149 -0.529635
N5    N     N_3   0.503348 0.943694 0.424485 -0.596490
H49   H     H_    0.550825 0.899943 0.438993 0.224203
H50   H     H_    0.460427 0.887263 0.437130 0.230044
N6    N     N_3   0.497882 0.939774 0.577313 -0.594097
H51   H     H_    0.453224 0.888655 0.562276 0.224766
H52   H     H_    0.543880 0.891691 0.563459 0.228536
N7    N     N_3   0.015642 0.442195 0.414887 -0.596897
H53   H     H_    0.062915 0.391828 0.417652 0.229339
H54   H     H_    0.974790 0.392796 0.439028 0.224656
N8    N     N_3   0.043125 0.443396 0.564776 -0.579007
H55   H     H_    0.992042 0.405463 0.563213 0.225969
H56   H     H_    0.077888 0.383340 0.539636 0.217329

loop_
_geom_bond_atom_site_label_1
_geom_bond_atom_site_label_2
_ccdc_geom_bond_type
C58   C62   A    
C87   C88   S    
C79   O43   A    
Cr3   O3    S    
C48   C84   S    
C23   C91   A    
Cr7   O19   S    
Cr3   O23   S    
Cr8   O32   S    
C14   C18   A    
Cr9   O33   S    
C35   C36   A    
C84   C87   D    
C6    H26   S    
C67   O3    A    
C2    O22   A    
C32   C75   S    
N6    H52   S    
C3    O27   A    
Cr12  O36   S    
C89   H21   S    
C85   C86   S    
C84   H19   S    
C7    C11   A    
C66   O38   A    
C70   O50   A    
C50   C54   A    
N4    H44   S    
C19   C95   S    
C32   C36   A    
Cr4   O44   S    
C38   C42   A    
C55   C59   A    
C88   H4    S    
C96   O56   D    
C37   H33   S    
Cr7   O31   S    
C4    O24   A    
C76   O12   A    
C14   N2    S    
Cr5   O25   S    
C29   C33   A    
C58   H14   S    
Cr6   O30   S    
C15   N3    S    
C33   N5    S    
C65   O37   A    
C18   C94   S    
C23   C67   S    
C9    C13   A    
C22   C66   S    
Cr7   O7    S    
C52   C69   S    
C77   O13   A    
C46   C82   S    
C52   C56   A    
C11   C15   A    
C54   H10   S    
C36   N8    S    
C72   O48   A    
Cr6   O18   S    
C61   C77   S    
C94   H46   S    
N1    H38   S    
C49   C72   S    
C8    H28   S    
C77   O41   A    
C17   C93   S    
C46   O34   A    
C68   O4    A    
C8    C92   A    
C51   C70   S    
C47   C83   S    
C83   H20   S    
C25   H29   S    
C2    O26   A    
C82   H17   S    
C7    H27   S    
C81   C86   D    
Cr6   O50   S    
Cr11  O19   S    
C44   C52   A    
C5    H25   S    
C83   C88   D    
Cr9   O17   S    
N3    H41   S    
Cr2   O18   S    
C48   O32   A    
C37   C41   A    
C85   H1    S    
C64   C80   S    
Cr10  O18   S    
C86   H2    S    
C1    C12   S    
Cr1   O41   S    
Cr12  O20   S    
C16   N4    S    
C2    C11   S    
C24   C92   A    
C41   C49   A    
N6    H51   S    
C53   H9    S    
C80   O16   A    
Cr7   O27   S    
C93   O53   D    
C56   H12   S    
C62   C78   S    
C39   H35   S    
C90   H22   S    
N4    H43   S    
C30   C34   A    
Cr3   O47   S    
Cr2   O2    S    
C12   C16   A    
Cr8   O52   S    
N7    H53   S    
N2    H40   S    
C10   C14   A    
C69   O49   A    
C30   C73   S    
C53   C57   A    
C96   H48   S    
C78   O14   A    
C63   C79   S    
C29   C74   S    
Cr6   O6    S    
C51   C55   A    
C75   O7    A    
C25   C26   A    
C93   H45   S    
C24   C68   S    
C79   O15   A    
C68   O40   A    
C17   C21   A    
Cr4   O24   S    
C73   O5    A    
C78   O42   A    
C20   C96   S    
Cr5   O49   S    
C15   C19   A    
C50   C71   S    
C5    C9    A    
C26   H30   S    
C35   N7    S    
Cr4   O4    S    
C65   O1    A    
Cr8   O20   S    
C47   O31   A    
C95   H47   S    
Cr3   O43   S    
Cr1   O21   S    
C16   C20   A    
C7    C91   A    
Cr11  O35   S    
C33   C34   A    
C22   C90   A    
C87   H3    S    
Cr12  O16   S    
Cr1   O17   S    
Cr6   O26   S    
C46   O30   A    
C91   H23   S    
Cr10  O10   S    
C44   H8    S    
Cr11  O15   S    
Cr4   O20   S    
C42   C50   A    
N1    H37   S    
N8    H56   S    
Cr10  O38   S    
Cr3   O19   S    
N5    H50   S    
Cr9   O13   S    
C67   O39   A    
C69   O45   A    
Cr1   O1    S    
C19   C23   A    
C57   H13   S    
C54   C58   A    
C25   C30   A    
C95   O55   D    
Cr10  O14   S    
C92   H24   S    
C59   H15   S    
C73   O9    A    
C27   C32   A    
C28   H32   S    
C34   N6    S    
Cr5   O5    S    
C74   O6    A    
C28   C31   A    
C45   C81   S    
C21   C89   A    
C71   O47   A    
N2    H39   S    
C45   O29   A    
C6    C10   A    
C37   C61   A    
N7    H54   S    
C57   C61   A    
C66   O2    A    
Cr11  O11   S    
Cr10  O34   S    
C82   C85   D    
C39   C63   A    
C59   C63   A    
C40   C64   A    
Cr2   O46   S    
Cr8   O28   S    
C81   H18   S    
C60   C64   A    
C21   C65   S    
C3    O23   A    
Cr12  O12   S    
C18   C22   A    
N5    H49   S    
Cr5   O29   S    
C27   H31   S    
C3    C10   S    
C6    C90   A    
C72   O52   A    
Cr7   O51   S    
C43   C51   A    
C31   C76   S    
Cr12  O40   S    
C55   H11   S    
Cr8   O8    S    
C49   C53   A    
C40   H36   S    
C31   C35   A    
Cr9   O9    S    
Cr2   O42   S    
C60   H16   S    
Cr11  O39   S    
C80   O44   A    
C75   O11   A    
C42   H6    S    
C5    C89   A    
Cr9   O37   S    
C70   O46   A    
C1    O21   A    
C13   C17   A    
C43   H7    S    
C4    O28   A    
C45   O33   A    
C40   C44   A    
C56   C60   A    
C1    O25   A    
C76   O8    A    
C26   C29   A    
C94   O54   D    
N8    H55   S    
C39   C43   A    
C27   C28   A    
N3    H42   S    
C74   O10   A    
C13   N1    S    
C41   H5    S    
C38   H34   S    
C71   O51   A    
C4    C9    S    
Cr4   O48   S    
C20   C24   A    
C47   O35   A    
Cr2   O22   S    
C8    C12   A    
Cr5   O17   S    
C48   O36   A    
C38   C62   A    
Cr1   O45   S    
