data_str_m9_o2_o17_f0_sra.sym.193
_audit_creation_date              2013-03-05T16:02:01-0500
_audit_creation_method            fapswitch 2.2
_symmetry_space_group_name_H-M    P1
_symmetry_Int_Tables_number       1
_space_group_crystal_system       triclinic
_cell_length_a                    6.98482
_cell_length_b                    17.278896
_cell_length_c                    19.625127
_cell_angle_alpha                 108.527806
_cell_angle_beta                  89.869306
_cell_angle_gamma                 90.393046
_cell_volume                      2245.73997537

loop_
_atom_site_label
_atom_site_type_symbol
_atom_site_description
_atom_site_fract_x
_atom_site_fract_y
_atom_site_fract_z
_atom_type_partial_charge
O1    O     O_R   0.494330 0.415720 0.413720 -0.589288
O2    O     O_R   0.819330 0.430070 0.560210 -0.563091
O3    O     O_R   0.994320 0.584280 0.586280 -0.584671
C1    C     C_R   0.651022 0.415329 0.581726 1.018400
O4    O     O_R   0.823730 0.406300 0.412670 -0.587452
O5    O     O_R   0.998760 0.560340 0.437690 -0.590352
C2    C     C_R   0.654892 0.382471 0.386113 0.923260
O6    O     O_R   0.489890 0.439660 0.562310 -0.613779
O7    O     O_3   0.662340 0.550560 0.508380 -0.277197
V1    V     V_3+5 0.935370 0.490620 0.498450 1.204996
O8    O     O_R   0.328750 0.569930 0.439790 -0.588587
C3    C     C_R   0.160421 0.584277 0.417932 0.940218
O9    O     O_R   0.324340 0.593700 0.587330 -0.601898
C4    C     C_R   0.155446 0.616249 0.615031 0.946839
V2    V     V_3+5 0.435940 0.509380 0.501550 1.174983
O10   O     O_3   0.159100 0.449440 0.491620 -0.265821
H1    H     H_    0.990555 0.870348 0.568491 0.131612
C5    C     C_R   0.175714 0.588310 0.752766 -0.104430
C6    C     C_R   0.182908 0.572667 0.818167 -0.111818
C7    C     C_R   0.179089 0.636739 0.882442 -0.159120
C8    C     C_R   0.162805 0.716836 0.881861 -0.152807
C9    C     C_R   0.148037 0.734380 0.816461 0.120515
C10   C     C_R   0.158193 0.668952 0.750486 0.062630
C11   C     C_R   0.117248 0.815228 0.816170 -0.291585
C12   C     C_R   0.086350 0.829930 0.750007 0.108316
C13   C     C_R   0.100778 0.764775 0.683962 0.127409
C14   C     C_R   0.143636 0.684668 0.684012 -0.312823
C15   C     C_R   0.037896 0.908669 0.748227 -0.176786
C16   C     C_R   0.001746 0.922524 0.683269 0.026768
C17   C     C_R   0.017589 0.859125 0.618814 -0.013840
C18   C     C_R   0.067497 0.781177 0.618902 -0.176885
H2    H     H_    0.181533 0.536480 0.704152 0.133280
H3    H     H_    0.193473 0.510453 0.818903 0.128665
H4    H     H_    0.187210 0.624279 0.933033 0.114660
H5    H     H_    0.157964 0.764693 0.933111 0.081678
H6    H     H_    0.024984 0.960059 0.796918 0.116227
H7    H     H_    0.962735 0.982948 0.682936 0.132653
H8    H     H_    0.076684 0.733575 0.567666 0.091477
C19   C     C_R   0.159629 0.596396 0.294335 -0.186221
C20   C     C_R   0.150925 0.633843 0.369124 -0.133415
C21   C     C_R   0.126073 0.718544 0.397155 -0.215380
C22   C     C_R   0.113225 0.766285 0.351266 0.146620
C23   C     C_R   0.126104 0.729131 0.276267 0.031143
C24   C     C_R   0.146749 0.643482 0.247685 0.167916
C25   C     C_R   0.084835 0.850479 0.379186 -0.165521
C26   C     C_R   0.075468 0.898206 0.333702 -0.095537
C27   C     C_R   0.099867 0.863710 0.258588 -0.038097
C28   C     C_R   0.118045 0.777540 0.229880 -0.004031
C29   C     C_R   0.128001 0.739240 0.154955 0.188840
C30   C     C_R   0.145723 0.653980 0.127072 -0.254514
C31   C     C_R   0.154517 0.606546 0.172976 -0.173991
C32   C     C_R   0.103562 0.912255 0.211499 0.245641
C33   C     C_R   0.108842 0.871613 0.135589 -0.291406
C34   C     C_R   0.118731 0.786259 0.108769 -0.332747
H9    H     H_    0.175980 0.530730 0.272639 0.121344
H10   H     H_    0.116827 0.747317 0.454686 0.109034
H11   H     H_    0.068546 0.879688 0.436567 0.163340
H12   H     H_    0.044951 0.961993 0.358771 0.210665
H13   H     H_    0.123128 0.756305 0.051229 0.128064
H14   H     H_    0.152698 0.623825 0.069568 0.138165
H15   H     H_    0.168248 0.540947 0.150005 0.152137
C35   C     C_R   0.612234 0.224500 0.897873 0.239971
C36   C     C_R   0.619112 0.137740 0.871585 -0.275896
C37   C     C_R   0.616115 0.098072 0.796956 -0.215230
C38   C     C_R   0.603126 0.143095 0.748370 -0.019332
C39   C     C_R   0.636308 0.228296 0.774876 0.007705
C40   C     C_R   0.659602 0.267509 0.849364 0.067649
C41   C     C_R   0.564642 0.105823 0.674039 0.308593
C42   C     C_R   0.553970 0.154579 0.628778 -0.190449
C43   C     C_R   0.592932 0.238568 0.654655 0.097010
C44   C     C_R   0.643664 0.274950 0.727229 -0.003664
C45   C     C_R   0.703271 0.357682 0.752200 0.004906
C46   C     C_R   0.756645 0.391730 0.824659 -0.212025
C47   C     C_R   0.729111 0.348296 0.872932 -0.109636
C48   C     C_R   0.584097 0.286544 0.608863 -0.180033
C49   C     C_R   0.645007 0.368253 0.632625 -0.291953
C50   C     C_R   0.711310 0.403541 0.703746 0.484175
H16   H     H_    0.615463 0.032066 0.777868 0.169513
H17   H     H_    0.516263 0.126421 0.572764 0.205080
H18   H     H_    0.537754 0.259471 0.553640 0.151233
H19   H     H_    0.815138 0.452764 0.845247 0.139622
H20   H     H_    0.769806 0.377453 0.928423 0.149359
C51   C     C_R   0.675330 0.409668 0.249845 -0.297705
C52   C     C_R   0.711454 0.425974 0.185870 0.573284
C53   C     C_R   0.734313 0.359967 0.122563 -0.224898
C54   C     C_R   0.704098 0.280030 0.122666 -0.100169
C55   C     C_R   0.658149 0.262885 0.186491 0.082549
C56   C     C_R   0.655451 0.328789 0.251816 0.041192
C57   C     C_R   0.630593 0.181236 0.186669 -0.249023
C58   C     C_R   0.649857 0.164367 0.253343 0.001311
C59   C     C_R   0.658191 0.231457 0.318945 0.037398
C60   C     C_R   0.646680 0.313064 0.318021 -0.179615
C61   C     C_R   0.673327 0.083502 0.257311 0.542091
C62   C     C_R   0.716086 0.072752 0.323696 -0.281803
C63   C     C_R   0.726165 0.138039 0.386911 0.392576
C64   C     C_R   0.690661 0.216390 0.384679 -0.300983
H21   H     H_    0.669587 0.461551 0.298453 0.149092
H22   H     H_    0.779530 0.369891 0.073266 0.144906
H23   H     H_    0.728100 0.231424 0.072905 0.135220
H24   H     H_    0.752069 0.012523 0.325149 0.157445
H25   H     H_    0.698061 0.265977 0.434849 0.136420
O11   O     O_R   0.775200 0.060470 0.937800 -0.614815
O12   O     O_R   0.441110 0.093720 0.087350 -0.566358
O13   O     O_R   0.266330 0.939630 0.062280 -0.623953
C65   C     C_R   0.610923 0.114315 0.116573 1.044535
O14   O     O_R   0.445750 0.069950 0.939820 -0.549099
O15   O     O_R   0.271000 0.915700 0.913700 -0.594619
C66   C     C_R   0.614012 0.086742 0.919789 1.009252
O16   O     O_R   0.770530 0.084400 0.086380 -0.555884
O17   O     O_3   0.602830 0.949510 0.991680 -0.302878
V3    V     V_3+5 0.329710 0.009370 0.001550 1.235066
O18   O     O_R   0.940990 0.906170 0.912570 -0.604740
C67   C     C_R   0.109349 0.883754 0.884964 0.925940
O19   O     O_R   0.936350 0.929940 0.060100 -0.568198
C68   C     C_R   0.104035 0.916345 0.082570 1.078582
V4    V     V_3+5 0.829160 0.990450 0.998310 1.205240
O20   O     O_3   0.105910 0.050480 0.008320 -0.251376
N1    N     N_R   0.116493 0.000859 0.240179 0.205528
O21   O     O_R   0.070482 0.046290 0.201195 -0.394978
O22   O     O_R   0.213559 0.035602 0.298557 -0.462128
N2    N     N_R   0.523922 0.267247 0.966557 0.210762
O23   O     O_R   0.429077 0.226935 0.001479 -0.421318
O24   O     O_R   0.488927 0.344990 0.983947 -0.462992
N3    N     N_R   0.529259 0.019612 0.643704 0.228584
O25   O     O_R   0.410227 0.983047 0.674553 -0.433874
O26   O     O_R   0.591048 0.980380 0.579469 -0.371068
O27   O     O_3   0.799405 0.479652 0.722885 -0.645281
C69   C     C_3   0.677060 0.540794 0.766005 0.185732
H26   H     H_    0.749614 0.571196 0.818025 0.138467
H27   H     H_    0.536571 0.517542 0.778393 0.083136
C70   C     C_3   0.643210 0.605153 0.729672 -0.824483
H28   H     H_    0.557943 0.578536 0.680243 0.251952
H29   H     H_    0.565279 0.657611 0.766665 0.216922
H30   H     H_    0.780965 0.627641 0.715094 0.263694
N4    N     N_R   0.784737 0.125202 0.452662 0.233203
O28   O     O_R   0.770443 0.053216 0.460196 -0.393407
O29   O     O_R   0.871812 0.183089 0.502243 -0.411382
O30   O     O_3   0.745307 0.506674 0.189840 -0.642231
C71   C     C_3   0.660654 0.525793 0.131863 0.268319
H31   H     H_    0.517966 0.495785 0.117121 0.118765
H32   H     H_    0.757147 0.507379 0.084352 0.106254
C72   C     C_3   0.631691 0.617704 0.153446 -0.871979
H33   H     H_    0.770506 0.650280 0.165690 0.266216
H34   H     H_    0.562041 0.633727 0.108957 0.214152
H35   H     H_    0.541126 0.638572 0.202303 0.263192
O31   O     O_3   0.693184 0.016284 0.196055 -0.620663
C73   C     C_3   0.552134 0.957181 0.195271 0.258799
H36   H     H_    0.421911 0.975771 0.174104 0.155957
H37   H     H_    0.520054 0.950685 0.248729 0.115752
C74   C     C_3   0.609973 0.873097 0.146564 -0.860852
H38   H     H_    0.742238 0.853396 0.166805 0.250654
H39   H     H_    0.497205 0.827918 0.147047 0.212980
H40   H     H_    0.629153 0.872981 0.090544 0.280629

loop_
_geom_bond_atom_site_label_1
_geom_bond_atom_site_label_2
_geom_bond_distance
_ccdc_geom_bond_type
C55   C56   1.418804 A    
C48   C49   1.402149 A    
C61   C62   1.406192 A    
C21   C22   1.404651 A    
C63   C64   1.392330 A    
C31   H15   1.083408 S    
C73   H36   1.092524 S    
C1    O6    1.303417 A    
C70   H30   1.105859 S    
C69   H26   1.110357 S    
C41   N3    1.437535 S    
O19   C68   1.301318 A    
N4    O28   1.301572 A    
C53   C54   1.396472 A    
C12   C15   1.415405 A    
C25   H11   1.083882 S    
C13   C14   1.418473 A    
C35   C36   1.423091 A    
C35   C40   1.418751 A    
C51   C52   1.393466 A    
C15   C16   1.393723 A    
C73   H37   1.112163 S    
O5    C3    1.299986 A    
C17   C18   1.394087 A    
C71   C72   1.522822 S    
V2    O10   2.166962 S    
V4    O20   2.167000 S    
O12   V3    1.998931 S    
C5    C6    1.394244 A    
C46   C47   1.395260 A    
N1    O21   1.300417 A    
O15   C67   1.301582 A    
C53   H22   1.080938 S    
O16   V4    2.003253 S    
C59   C64   1.413864 A    
O17   V3    2.155152 S    
O8    V2    1.986208 S    
C52   C53   1.403900 A    
C19   H9    1.084556 S    
C56   C60   1.410483 A    
C41   C42   1.407477 A    
C74   H40   1.106609 S    
O11   C66   1.307439 A    
C43   C44   1.406957 A    
O1    V2    1.997364 S    
C10   C14   1.418473 A    
C4    C14   1.490232 S    
C48   H18   1.084191 S    
C50   O27   1.387547 S    
O14   V3    2.002516 S    
C7    H4    1.082409 S    
C51   C56   1.416147 A    
C52   O30   1.390285 S    
C11   C67   1.487414 S    
C29   C34   1.398166 A    
C8    C9    1.413568 A    
C26   H12   1.077227 S    
H1    C17   1.082456 S    
C72   H35   1.109119 S    
C62   C63   1.387978 A    
C37   H16   1.081455 S    
C47   H20   1.082289 S    
C46   H19   1.079998 S    
O18   C67   1.302452 A    
C33   C68   1.480812 S    
C34   H13   1.082865 S    
C9    C10   1.424777 A    
C1    C49   1.475434 S    
C5    C10   1.414405 A    
C73   C74   1.520335 S    
C64   H25   1.081518 S    
C11   C12   1.417316 A    
C6    H3    1.082696 S    
C59   C60   1.418784 A    
O4    C2    1.300643 A    
C54   C55   1.411515 A    
C12   C13   1.425188 A    
C33   C34   1.401717 A    
C22   C25   1.397429 A    
C3    C20   1.475752 S    
O2    C1    1.298921 A    
C23   C24   1.414414 A    
C21   H10   1.081437 S    
C16   C17   1.390220 A    
C74   H39   1.107320 S    
O13   V3    1.992878 S    
O13   C68   1.303448 A    
C27   C28   1.421121 A    
C62   H24   1.081447 S    
C71   H31   1.115682 S    
C38   C41   1.420328 A    
C63   N4    1.437782 S    
C30   C31   1.399015 A    
C36   C66   1.483880 S    
C61   O31   1.388340 S    
O12   C65   1.315304 A    
C40   C47   1.406997 A    
C49   C50   1.411598 A    
C54   H23   1.080319 S    
N2    O23   1.299512 A    
C27   C32   1.431951 A    
O3    C4    1.298617 A    
C39   C44   1.416020 A    
C24   C31   1.401906 A    
C20   C21   1.402170 A    
C38   C39   1.414494 A    
O6    V2    1.984024 S    
O9    V2    2.003787 S    
C9    C11   1.416676 A    
C42   H17   1.083580 S    
C5    H2    1.082224 S    
C22   C23   1.409358 A    
C16   H7    1.082860 S    
O27   C69   1.415409 S    
O2    V1    2.002598 S    
C69   C70   1.519640 S    
O17   V4    1.715694 S    
O18   V4    2.003622 S    
C32   C33   1.431465 A    
C58   C61   1.434433 A    
N3    O26   1.301306 A    
O31   C73   1.410706 S    
O7    V1    2.155150 S    
N4    O29   1.301131 A    
C65   O16   1.292813 A    
C26   C27   1.413929 A    
C28   C29   1.409482 A    
O1    C2    1.299851 A    
O15   V3    1.995215 S    
C45   C46   1.405337 A    
C70   H29   1.109829 S    
C69   H27   1.113117 S    
O5    V1    1.993084 S    
C45   C50   1.418901 A    
O19   V4    1.986167 S    
O8    C3    1.304502 A    
C19   C24   1.408183 A    
C8    H5    1.080825 S    
C74   H38   1.104130 S    
C18   H8    1.080055 S    
V3    O20   1.708842 S    
C23   C28   1.419995 A    
C37   C38   1.412581 A    
C6    C7    1.389330 A    
C55   C57   1.423680 A    
O7    V2    1.717524 S    
C30   H14   1.083446 S    
O4    V1    1.999101 S    
O3    V1    1.995223 S    
V1    O10   1.708808 S    
C71   H32   1.111949 S    
C58   C59   1.433760 A    
O14   C66   1.298344 A    
C2    C60   1.485999 S    
C39   C40   1.411593 A    
C72   H34   1.110425 S    
C42   C43   1.401755 A    
N1    O22   1.301352 A    
N2    O24   1.301331 A    
O11   V4    1.984293 S    
O30   C71   1.413492 S    
C36   C37   1.406153 A    
C19   C20   1.404713 A    
C25   C26   1.396408 A    
C13   C18   1.413088 A    
C44   C45   1.415829 A    
C7    C8    1.393081 A    
C15   H6    1.082219 S    
C29   C30   1.405323 A    
C51   H21   1.082629 S    
C57   C65   1.495356 S    
C43   C48   1.404644 A    
C72   H33   1.105579 S    
C57   C58   1.434895 A    
O9    C4    1.306821 A    
C35   N2    1.453510 S    
C70   H28   1.105695 S    
N3    O25   1.300208 A    
C32   N1    1.455869 S    
