data_str_m2_o9_o18_f0_pcu.sym.248
_audit_creation_date              2012-12-10T19:45:46-0500
_audit_creation_method            fapswitch 2.2
_symmetry_space_group_name_H-M    P1
_symmetry_Int_Tables_number       1
_space_group_crystal_system       triclinic
_cell_length_a                    10.985804
_cell_length_b                    14.712289
_cell_length_c                    15.088027
_cell_angle_alpha                 64.806427
_cell_angle_beta                  104.471439
_cell_angle_gamma                 101.75049
_cell_volume                      2123.42711855

loop_
_atom_site_label
_atom_site_type_symbol
_atom_type_description
_atom_site_fract_x
_atom_site_fract_y
_atom_site_fract_z
_atom_type_partial_charge
C1    C     C_R   0.479415 0.120044 0.312495 0.835644
C2    C     C_R   0.560714 0.782896 0.969646 -0.211269
C3    C     C_R   0.379851 0.152584 0.132439 0.122179
C4    C     C_R   0.558635 0.848155 0.870039 0.093649
C5    C     C_R   0.497262 0.292921 0.173548 -0.127354
C6    C     C_R   0.484997 0.703583 0.822989 -0.040843
C7    C     C_R   0.438364 0.362437 0.080667 -0.028931
C8    C     C_R   0.473695 0.639877 0.923128 -0.032934
C9    C     C_R   0.358613 0.324992 0.011061 0.122238
C10   C     C_R   0.521575 0.679447 0.997085 0.126410
C11   C     C_R   0.459163 0.468699 0.053858 0.032832
C12   C     C_R   0.519850 0.879396 0.687459 0.817071
C13   C     C_R   0.426251 0.535164 0.953538 0.026979
C14   C     C_R   0.338757 0.496389 0.889072 -0.217034
C15   C     C_R   0.501779 0.510554 0.125422 -0.264875
C16   C     C_R   0.264988 0.995959 0.508691 0.814386
C17   C     C_R   0.737120 0.001858 0.495676 0.821786
C18   C     C_R   0.304761 0.392494 0.916424 0.145591
C19   C     C_R   0.532166 0.614200 0.097920 0.144608
C20   C     C_R   0.702823 0.281693 0.673757 0.099645
C21   C     C_R   0.298304 0.727116 0.318576 0.079250
C22   C     C_R   0.684489 0.205651 0.636797 0.181651
C23   C     C_R   0.872543 0.002835 0.493653 -0.112163
C24   C     C_R   0.317455 0.799118 0.360665 0.151359
C25   C     C_R   0.516982 0.285043 0.509231 0.072079
C26   C     C_R   0.474771 0.710384 0.490769 0.090311
C27   C     C_R   0.538349 0.367615 0.538522 -0.048267
C28   C     C_R   0.439427 0.625303 0.463801 -0.068734
C29   C     C_R   0.619034 0.356800 0.630989 0.041303
C30   C     C_R   0.354512 0.636311 0.372694 0.072287
C31   C     C_R   0.478477 0.458043 0.481725 0.083968
C32   C     C_R   0.493357 0.532565 0.521424 0.075087
C33   C     C_R   0.557149 0.510785 0.619657 -0.305826
C34   C     C_R   0.133787 0.991232 0.520606 -0.068710
C35   C     C_R   0.402174 0.475129 0.387634 -0.352527
C36   C     C_R   0.615423 0.423203 0.675737 -0.013910
C37   C     C_R   0.332110 0.557300 0.337840 -0.007537
C38   C     C_R   0.286548 0.167203 0.725536 0.177510
C39   C     C_R   0.680208 0.816252 0.312386 0.217791
C40   C     C_R   0.230448 0.099980 0.677894 0.159047
C41   C     C_R   0.762026 0.885991 0.346936 0.229894
C42   C     C_R   0.181451 0.139156 0.574414 0.117904
C43   C     C_R   0.826671 0.851162 0.447733 0.069844
C44   C     C_R   0.195551 0.244179 0.519495 -0.249855
C45   C     C_R   0.914735 0.920695 0.488451 -0.092438
C46   C     C_R   0.814148 0.747624 0.508629 -0.240006
C47   C     C_R   0.244233 0.309487 0.568108 -0.202944
C48   C     C_R   0.749953 0.678586 0.468354 -0.187360
C49   C     C_R   0.291428 0.271425 0.670143 -0.064740
C50   C     C_R   0.680851 0.712455 0.371779 -0.164360
C51   C     C_R   0.962947 0.082172 0.506657 -0.073576
C52   C     C_R   0.044631 0.910509 0.511150 -0.056578
C53   C     C_2   0.654692 0.398754 0.783921 0.329693
C54   C     C_2   0.232822 0.552124 0.252766 0.425705
C55   C     C_2   0.225169 0.874474 0.321129 0.341688
C56   C     C_R   0.093135 0.072287 0.528838 -0.042726
C57   C     C_2   0.773977 0.127015 0.682411 0.379952
C58   C     C_2   0.923632 0.180300 0.488735 0.413481
C59   C     C_2   0.086350 0.812468 0.530175 0.417080
C60   C     C_2   0.492698 0.654449 0.757477 0.366021
C61   C     C_2   0.624700 0.324995 0.221005 0.420968
C62   C     C_R   0.454418 0.188487 0.204735 -0.093221
C63   C     C_R   0.521323 0.809773 0.794599 -0.103544
C64   C     C_R   0.334736 0.220685 0.036786 -0.186582
Cu1   Cu    Cu3+1 0.466270 0.918260 0.475690 0.985201
Cu2   Cu    Cu3+1 0.533730 0.081740 0.524310 0.982537
H1    H     H_    0.330730 0.323260 0.706507 0.190103
H2    H     H_    0.389149 0.422054 0.353243 0.136664
H3    H     H_    0.158410 0.275644 0.440205 0.168303
H4    H     H_    0.861230 0.719873 0.585932 0.154099
H5    H     H_    0.243380 0.390089 0.526789 0.189912
H6    H     H_    0.750065 0.598511 0.513386 0.171661
H7    H     H_    0.701268 0.457788 0.809895 0.060824
H8    H     H_    0.255512 0.532913 0.197229 0.054730
H9    H     H_    0.252238 0.951371 0.312939 0.145674
H10   H     H_    0.745382 0.051248 0.687306 0.127678
H11   H     H_    0.792776 0.249381 0.818308 0.267088
H12   H     H_    0.623664 0.656899 0.346236 0.149146
H13   H     H_    0.851214 0.362106 0.733077 0.209793
H14   H     H_    0.138819 0.755063 0.210714 0.305559
H15   H     H_    0.274832 0.822800 0.172182 0.199070
H16   H     H_    0.259004 0.088399 0.867679 0.213216
H17   H     H_    0.403478 0.085311 0.848617 0.216366
H18   H     H_    0.529953 0.793730 0.209822 0.221763
H19   H     H_    0.547210 0.904913 0.215851 0.235320
H20   H     H_    0.307485 0.970007 0.769084 0.226718
H21   H     H_    0.164314 0.976309 0.788672 0.223804
H22   H     H_    0.848841 0.033018 0.307854 0.219932
H23   H     H_    0.278081 0.190620 0.983361 0.181496
H24   H     H_    0.802655 0.993301 0.216284 0.239800
H25   H     H_    0.956339 0.213166 0.543751 0.124009
H26   H     H_    0.048476 0.775534 0.478783 0.123486
H27   H     H_    0.195673 0.414079 0.778061 0.234313
H28   H     H_    0.132166 0.327747 0.875267 0.223502
H29   H     H_    0.657885 0.616939 0.219154 0.251736
H30   H     H_    0.506993 0.630004 0.216186 0.203433
H31   H     H_    0.575696 0.617245 0.773064 0.018494
H32   H     H_    0.701229 0.351704 0.179276 0.094713
H33   H     H_    0.696426 0.958203 0.883343 0.228544
H34   H     H_    0.594993 0.814290 0.025754 0.195028
H35   H     H_    0.549293 0.980348 0.877239 0.214019
H36   H     H_    0.254203 0.030937 0.135544 0.210114
H37   H     H_    0.392762 0.031741 0.106361 0.224100
H38   H     H_    0.290339 0.546996 0.819167 0.208720
H39   H     H_    0.506011 0.464052 0.203765 0.182981
H40   H     H_    0.551616 0.711194 0.551087 0.141253
H41   H     H_    0.443734 0.280686 0.448267 0.142945
H42   H     H_    0.557153 0.559367 0.656017 0.156123
N1    N     N_R   0.584450 0.204570 0.560790 -0.240566
N2    N     N_3   0.577840 0.652277 0.173861 -0.610579
N3    N     N_3   0.602286 0.952856 0.847314 -0.581123
N4    N     N_3   0.352212 0.046827 0.153743 -0.603719
N5    N     N_R   0.415550 0.795430 0.439210 -0.229878
N6    N     N_3   0.813848 0.287077 0.746823 -0.528586
N7    N     N_3   0.234793 0.752119 0.216812 -0.566000
N8    N     N_3   0.333092 0.131546 0.830683 -0.568210
N9    N     N_3   0.598579 0.851974 0.216655 -0.587805
N10   N     N_3   0.217477 0.992771 0.734058 -0.587298
N11   N     N_3   0.775113 0.990601 0.278959 -0.581290
N12   N     N_3   0.216663 0.355347 0.847846 -0.581169
O1    O     O_R   0.455540 0.022090 0.338120 -0.595569
O2    O     O_2   0.123236 0.561206 0.248461 -0.512891
O3    O     O_2   0.112499 0.849770 0.298778 -0.599870
O4    O     O_2   0.884829 0.146301 0.715762 -0.568938
O5    O     O_2   0.858016 0.227012 0.409731 -0.496762
O6    O     O_2   0.161731 0.771198 0.605455 -0.501861
O7    O     O_2   0.405299 0.651392 0.690068 -0.515838
O8    O     O_2   0.643470 0.328196 0.302862 -0.492290
O9    O     O_R   0.544460 0.977910 0.661880 -0.595161
O10   O     O_R   0.512510 0.160150 0.379180 -0.533520
O11   O     O_R   0.487490 0.839850 0.620820 -0.535661
O12   O     O_R   0.291160 0.930970 0.479480 -0.588793
O13   O     O_R   0.708840 0.069030 0.520520 -0.590168
O14   O     O_R   0.348130 0.069020 0.520540 -0.594555
O15   O     O_R   0.651870 0.930980 0.479460 -0.587402
O16   O     O_2   0.626270 0.314574 0.844668 -0.536513

loop_
_geom_bond_atom_site_label_1
_geom_bond_atom_site_label_2
_ccdc_geom_bond_type
C40   N10   S    
C34   C56   A    
C8    C13   A    
C23   C45   A    
C12   O11   A    
C27   C29   A    
C9    C64   A    
C14   C18   A    
H36   N4    S    
C61   H32   S    
C21   N7    S    
C16   O14   A    
C1    C62   S    
C26   H40   S    
C22   C57   S    
C47   C49   A    
C38   C49   A    
C3    C64   A    
C59   O6    D    
C15   C19   A    
C53   O16   D    
C4    C63   A    
C17   C23   S    
C57   H10   S    
C35   C37   A    
C19   N2    S    
C33   C36   A    
C51   C56   A    
C36   C53   S    
C16   C34   S    
Cu2   O14   S    
C11   C15   A    
C23   C51   A    
H18   N9    S    
C17   O15   A    
H27   N12   S    
Cu1   O1    S    
C58   H25   S    
C3    N4    S    
C44   C47   A    
C25   N1    A    
Cu2   O9    S    
C55   H9    S    
C40   C42   A    
C54   O2    D    
C2    H34   S    
C24   N5    A    
C54   H8    S    
C13   C14   A    
C41   C43   A    
C33   H42   S    
C42   C44   A    
C64   H23   S    
C48   H6    S    
C50   H12   S    
C26   C28   A    
Cu1   O11   S    
C55   O3    D    
C20   C29   A    
C46   C48   A    
C12   O9    A    
C27   C31   A    
C6    C60   S    
C28   C32   A    
H21   N10   S    
C39   C41   A    
C1    O10   A    
C5    C7    A    
C12   C63   S    
C6    C8    A    
C45   C52   A    
C39   N9    S    
H30   N2    S    
C30   C37   A    
H37   N4    S    
C24   C55   S    
C6    C63   A    
C7    C11   A    
C52   C59   S    
Cu2   O13   S    
C38   N8    S    
C14   H38   S    
C31   C32   A    
C29   C36   A    
H14   N7    S    
C10   C19   A    
H19   N9    S    
C22   N1    A    
H33   N3    S    
H15   N7    S    
C5    C61   S    
C44   H3    S    
H20   N10   S    
C51   C58   S    
C41   N11   S    
H22   N11   S    
C42   C56   S    
C43   C45   S    
C47   H5    S    
Cu1   O15   S    
C37   C54   S    
C20   N6    S    
C4    N3    S    
C20   C22   A    
C60   H31   S    
C17   O13   A    
C31   C35   A    
C21   C24   A    
H35   N3    S    
H11   N6    S    
C2    C10   A    
C34   C52   A    
C18   N12   S    
Cu1   O12   S    
C25   H41   S    
C3    C62   A    
C7    C9    A    
C49   H1    S    
Cu1   N5    S    
H17   N8    S    
C60   O7    D    
C53   H7    S    
H29   N2    S    
C25   C27   A    
C21   C30   A    
H28   N12   S    
H24   N11   S    
C15   H39   S    
C28   C30   A    
C26   N5    A    
H16   N8    S    
C32   C33   A    
C57   O4    D    
C38   C40   A    
C11   C13   A    
C35   H2    S    
C2    C4    A    
C48   C50   A    
C5    C62   A    
C61   O8    D    
C59   H26   S    
Cu2   N1    S    
C16   O12   A    
C43   C46   A    
C1    O1    A    
C46   H4    S    
C9    C18   A    
C39   C50   A    
C58   O5    D    
C8    C10   A    
Cu1   Cu2   S    
H13   N6    S    
Cu2   O10   S    
