data_str_m3_o14_o14_f0_pcu.sym.25
_audit_creation_date              2012-12-10T17:41:00-0500
_audit_creation_method            fapswitch 2.2
_symmetry_space_group_name_H-M    P1
_symmetry_Int_Tables_number       1
_space_group_crystal_system       triclinic
_cell_length_a                    14.907004
_cell_length_b                    15.268318
_cell_length_c                    9.89572
_cell_angle_alpha                 89.974876
_cell_angle_beta                  89.785073
_cell_angle_gamma                 89.449438
_cell_volume                      2252.19412701

loop_
_atom_site_label
_atom_site_type_symbol
_atom_type_description
_atom_site_fract_x
_atom_site_fract_y
_atom_site_fract_z
_atom_type_partial_charge
C1    C     C_R   0.385383 0.875033 0.501121 0.869999
C2    C     C_R   0.714600 0.222308 0.382485 -0.209771
C3    C     C_R   0.169755 0.236431 0.448489 -0.218793
C4    C     C_R   0.214630 0.722260 0.382463 -0.209836
C5    C     C_R   0.690307 0.818592 0.499461 -0.093841
C6    C     C_R   0.675555 0.197231 0.504731 -0.134694
C7    C     C_R   0.190358 0.318636 0.499444 -0.094069
C8    C     C_R   0.175418 0.697324 0.504657 -0.134691
C9    C     C_R   0.336024 0.998669 0.140921 -0.240794
C10   C     C_R   0.836028 0.498583 0.140930 -0.241198
C11   C     C_R   0.255298 0.996078 0.071290 -0.322956
C12   C     C_R   0.381115 0.120559 0.500103 0.859686
C13   C     C_R   0.755308 0.495886 0.071301 -0.321672
C14   C     C_R   0.254759 0.997179 0.930535 0.513822
C15   C     C_R   0.754781 0.496925 0.930575 0.513600
C16   C     C_R   0.336021 0.998456 0.860633 -0.227539
C17   C     C_R   0.836023 0.498328 0.860633 -0.228222
C18   C     C_R   0.419143 0.999351 0.928115 0.084131
C19   C     C_R   0.919145 0.499287 0.928114 0.084507
C20   C     C_R   0.419172 0.999422 0.072713 0.175999
C21   C     C_R   0.919174 0.499367 0.072716 0.175893
C22   C     C_R   0.577314 0.001077 0.071086 -0.120601
C23   C     C_R   0.885439 0.374997 0.501101 0.870022
C24   C     C_R   0.077313 0.501129 0.071086 -0.120611
C25   C     C_R   0.614642 0.124902 0.500810 0.853008
C26   C     C_R   0.620596 0.881202 0.499832 0.867695
C27   C     C_R   0.114611 0.624918 0.500793 0.853094
C28   C     C_R   0.120626 0.381228 0.499829 0.867602
C29   C     C_R   0.577280 0.001119 0.927845 -0.113608
C30   C     C_R   0.077278 0.501174 0.927845 -0.113498
C31   C     C_R   0.429855 0.293890 0.590859 -0.177559
C32   C     C_R   0.335330 0.779261 0.755697 -0.171869
C33   C     C_R   0.930045 0.794087 0.589507 -0.177561
C34   C     C_R   0.881095 0.620540 0.500102 0.859585
C35   C     C_R   0.835993 0.278737 0.755398 -0.172287
C36   C     C_R   0.450838 0.378006 0.634734 -0.149441
C37   C     C_R   0.290422 0.765289 0.877431 -0.134695
C38   C     C_R   0.951134 0.878302 0.632799 -0.149796
C39   C     C_R   0.791315 0.264614 0.877280 -0.135229
C40   C     C_R   0.885382 0.943698 0.634050 -0.144713
C41   C     C_R   0.701524 0.241531 0.876472 -0.116166
C42   C     C_R   0.385104 0.443419 0.635860 -0.145152
C43   C     C_R   0.200645 0.742175 0.876314 -0.116324
C44   C     C_R   0.798522 0.925082 0.591444 -0.181952
C45   C     C_R   0.234102 0.171967 0.448831 -0.215691
C46   C     C_R   0.659259 0.224445 0.754057 -0.152831
C47   C     C_R   0.298360 0.424912 0.592608 -0.182023
C48   C     C_R   0.158632 0.724892 0.753774 -0.152992
C49   C     C_R   0.776279 0.839878 0.547203 0.090699
C50   C     C_R   0.706771 0.230826 0.629720 0.093382
C51   C     C_R   0.276210 0.339803 0.547816 0.090858
C52   C     C_R   0.206380 0.731136 0.629628 0.093295
C53   C     C_R   0.342199 0.273894 0.547519 0.097675
C54   C     C_R   0.290061 0.771368 0.630326 0.109659
C55   C     C_R   0.842276 0.773979 0.546854 0.097720
C56   C     C_R   0.286253 0.777433 0.382754 -0.228653
C57   C     C_R   0.790469 0.271028 0.630217 0.109708
C58   C     C_R   0.318619 0.190241 0.499896 -0.084881
C59   C     C_R   0.323631 0.803368 0.505372 -0.124869
C60   C     C_R   0.818579 0.690205 0.499891 -0.084763
C61   C     C_R   0.823795 0.303244 0.505277 -0.124867
C62   C     C_3   0.118429 0.062205 0.879620 0.068523
C63   C     C_3   0.030442 0.032023 0.943943 -0.334224
C64   C     C_3   0.961449 0.106377 0.949888 -0.980431
C65   C     C_3   0.619215 0.562740 0.878124 0.068470
C66   C     C_3   0.530980 0.534146 0.943447 -0.334222
C67   C     C_R   0.733917 0.671788 0.449511 -0.216328
C68   C     C_3   0.462733 0.609199 0.947394 -0.980821
C69   C     C_R   0.786236 0.277469 0.382704 -0.228632
C70   C     C_R   0.669564 0.736253 0.449165 -0.218862
H1    H     H_    0.217819 0.107364 0.411060 0.140250
H2    H     H_    0.405875 0.794283 0.761732 0.165539
H3    H     H_    0.983023 0.745554 0.587468 0.125847
H4    H     H_    0.906548 0.293786 0.761123 0.165235
H5    H     H_    0.518443 0.392555 0.666788 0.162482
H6    H     H_    0.324835 0.774275 0.972517 0.138969
H7    H     H_    0.018828 0.892931 0.664327 0.162273
H8    H     H_    0.825910 0.273470 0.972245 0.139099
H9    H     H_    0.901877 0.009216 0.666782 0.144676
H10   H     H_    0.665229 0.234494 0.970768 0.131265
H11   H     H_    0.401524 0.508871 0.668986 0.144827
H12   H     H_    0.312162 0.799743 0.286340 0.173748
H13   H     H_    0.164176 0.735239 0.970476 0.131258
H14   H     H_    0.749756 0.978013 0.591649 0.145444
H15   H     H_    0.589054 0.208036 0.758915 0.160529
H16   H     H_    0.249622 0.477867 0.592732 0.145648
H17   H     H_    0.088442 0.708395 0.758369 0.160520
H18   H     H_    0.603034 0.721745 0.411733 0.144773
H19   H     H_    0.690233 0.199039 0.286024 0.169151
H20   H     H_    0.103324 0.222014 0.410563 0.144863
H21   H     H_    0.190434 0.698835 0.285994 0.169116
H22   H     H_    0.640448 0.001952 0.124594 0.146323
H23   H     H_    0.717540 0.607088 0.412245 0.140201
H24   H     H_    0.140446 0.502046 0.124594 0.146341
H25   H     H_    0.330241 0.999663 0.247996 0.227903
H26   H     H_    0.830241 0.499650 0.248003 0.227956
H27   H     H_    0.193039 0.992896 0.127503 0.158995
H28   H     H_    0.693037 0.492690 0.127480 0.159117
H29   H     H_    0.103610 0.091234 0.779022 0.165006
H30   H     H_    0.147913 0.115641 0.942045 0.130024
H31   H     H_    0.002474 0.977240 0.884134 0.233389
H32   H     H_    0.043210 0.007814 0.047978 0.213759
H33   H     H_    0.987269 0.161658 0.010950 0.265734
H34   H     H_    0.811980 0.299931 0.286274 0.173807
H35   H     H_    0.898549 0.082536 0.997108 0.269359
H36   H     H_    0.945975 0.129867 0.846306 0.262253
H37   H     H_    0.604601 0.590862 0.776849 0.165189
H38   H     H_    0.649335 0.616507 0.939164 0.130118
H39   H     H_    0.502419 0.478925 0.885262 0.233198
H40   H     H_    0.543586 0.511080 0.048139 0.213591
H41   H     H_    0.489172 0.664981 0.006731 0.266002
H42   H     H_    0.399652 0.586542 0.995488 0.269281
H43   H     H_    0.447376 0.631539 0.843175 0.262014
H44   H     H_    0.330890 0.999077 0.753554 0.226482
H45   H     H_    0.830875 0.499026 0.753556 0.226381
H46   H     H_    0.640383 0.002078 0.873502 0.150686
H47   H     H_    0.140380 0.502176 0.873501 0.150644
H48   H     H_    0.482841 0.245358 0.588912 0.126264
N1    N     N_R   0.498810 1.000000 0.142780 -0.111624
N2    N     N_R   0.998810 0.500000 0.142780 -0.111626
N3    N     N_R   0.498740 1.000000 0.857170 -0.112121
N4    N     N_R   0.998740 0.500000 0.857170 -0.112093
O1    O     O_R   0.408390 0.908380 0.614690 -0.645303
O2    O     O_R   0.591620 0.908390 0.614640 -0.621384
O3    O     O_R   0.091620 0.591610 0.614640 -0.637397
O4    O     O_R   0.091620 0.408390 0.614640 -0.621496
O5    O     O_R   0.591610 0.091610 0.385310 -0.615107
O6    O     O_R   0.591610 0.908390 0.385310 -0.609421
O7    O     O_R   0.091610 0.591610 0.385310 -0.615174
O8    O     O_R   0.091610 0.408390 0.385310 -0.609461
O9    O     O_3   0.175845 0.988962 0.858472 -0.648784
O10   O     O_3   0.675826 0.488715 0.858667 -0.648875
O11   O     O_R   0.408390 0.091620 0.614690 -0.639749
O12   O     O_R   0.908390 0.408380 0.614690 -0.645078
O13   O     O_R   0.908390 0.591620 0.614690 -0.639776
O14   O     O_R   0.408370 0.908380 0.385360 -0.641002
O15   O     O_R   0.408370 0.091620 0.385360 -0.627533
O16   O     O_R   0.908370 0.408380 0.385360 -0.641074
O17   O     O_R   0.908370 0.591620 0.385360 -0.627482
O18   O     O_R   0.591620 0.091610 0.614640 -0.637497
Zn1   Zn    Zn3+2 0.500010 1.000000 0.653130 0.919769
Zn2   Zn    Zn3+2 0.000010 0.500000 0.653130 0.919762
Zn3   Zn    Zn3+2 0.499980 1.000000 0.346870 0.934834
Zn4   Zn    Zn3+2 0.999980 0.500000 0.346870 0.934760

loop_
_geom_bond_atom_site_label_1
_geom_bond_atom_site_label_2
_ccdc_geom_bond_type
C44   C49   A    
C33   C55   A    
C64   H33   S    
C66   C68   S    
C19   N4    A    
C22   C29   A    
C45   H1    S    
N1    Zn3   S    
C23   O16   A    
C36   C42   A    
N2    Zn4   S    
C63   H31   S    
C70   H18   S    
C41   H10   S    
O5    Zn3   S    
C64   H35   S    
C39   C41   A    
O7    Zn4   S    
C62   C63   S    
C57   C61   A    
C3    H20   S    
C19   C21   A    
O14   Zn3   S    
C3    C7    A    
C1    C59   S    
C11   C14   A    
C6    C25   S    
C34   O17   A    
C43   H13   S    
C68   H42   S    
C13   H28   S    
O13   Zn2   S    
C15   O10   S    
C30   N4    A    
C60   C67   A    
C52   C54   A    
C29   N3    A    
C41   C46   A    
C48   H17   S    
C2    C69   A    
O8    Zn4   S    
C43   C48   A    
C8    C52   A    
C65   H38   S    
C28   O8    A    
C4    C8    A    
C68   H43   S    
C14   O9    S    
C4    H21   S    
C12   C58   S    
O15   Zn3   S    
C55   C60   A    
C4    C56   A    
C34   C60   S    
C5    C49   A    
C2    C6    A    
C42   H11   S    
C26   O2    A    
C63   H32   S    
C32   C54   A    
C28   O4    A    
C40   C44   A    
C54   C59   A    
C10   C21   A    
C22   N1    A    
C45   C58   A    
C24   N2    A    
C47   H16   S    
N3    Zn1   S    
C25   O18   A    
O18   Zn1   S    
C32   H2    S    
C47   C51   A    
C49   C55   A    
C3    C45   A    
C6    C50   A    
C7    C28   S    
C62   H29   S    
C51   C53   A    
C68   H41   S    
C37   C43   A    
C2    H19   S    
C35   C39   A    
C1    O1    A    
C31   H48   S    
C5    C70   A    
C36   H5    S    
C24   H24   S    
O12   Zn2   S    
O17   Zn4   S    
C9    C20   A    
C10   H26   S    
O3    Zn2   S    
C35   H4    S    
O1    Zn1   S    
C40   H9    S    
C26   O6    A    
C32   C37   A    
C31   C53   A    
C56   H12   S    
C9    C11   A    
C62   H30   S    
C33   H3    S    
C30   H47   S    
C37   H6    S    
C12   O11   A    
C13   C15   A    
C27   O7    A    
C14   C16   A    
O2    Zn1   S    
N4    Zn2   S    
C1    O14   A    
C65   O10   S    
C17   H45   S    
C69   H34   S    
C61   C69   A    
C15   C17   A    
C9    H25   S    
C23   O12   A    
C31   C36   A    
C50   C57   A    
C62   O9    S    
C29   H46   S    
C63   C64   S    
C44   H14   S    
C10   C13   A    
C16   H44   S    
C53   C58   A    
C64   H36   S    
C38   H7    S    
C21   N2    A    
C46   C50   A    
O11   Zn1   S    
C33   C38   A    
C56   C59   A    
C11   H27   S    
C35   C57   A    
C67   C70   A    
C46   H15   S    
C23   C61   S    
C25   O5    A    
C7    C51   A    
O16   Zn4   S    
C38   C40   A    
C27   O3    A    
C34   O13   A    
C17   C19   A    
O4    Zn2   S    
C18   C20   A    
C42   C47   A    
C66   H39   S    
O6    Zn3   S    
C24   C30   A    
C18   N3    A    
C5    C26   S    
C48   C52   A    
C66   H40   S    
C16   C18   A    
C65   C66   S    
C67   H23   S    
C8    C27   S    
C22   H22   S    
C12   O15   A    
C39   H8    S    
C65   H37   S    
C20   N1    A    
