data_str_m9_o11_o18_f0_sra.sym.35
_audit_creation_date              2012-12-11T14:21:14-0500
_audit_creation_method            fapswitch 2.2
_symmetry_space_group_name_H-M    P1
_symmetry_Int_Tables_number       1
_space_group_crystal_system       triclinic
_cell_length_a                    22.10184
_cell_length_b                    7.201315
_cell_length_c                    15.012512
_cell_angle_alpha                 90.000038
_cell_angle_beta                  108.271817
_cell_angle_gamma                 90.0
_cell_volume                      2268.95080194

loop_
_atom_site_label
_atom_site_type_symbol
_atom_type_description
_atom_site_fract_x
_atom_site_fract_y
_atom_site_fract_z
_atom_type_partial_charge
O1    O     O_R   0.584770 0.505770 0.002090 -0.538688
O2    O     O_R   0.415230 0.005770 0.997910 -0.538687
O3    O     O_R   0.467060 0.173340 0.861950 -0.532601
O4    O     O_R   0.532940 0.673340 0.138050 -0.532601
C1    C     C_R   0.454951 0.345489 0.825608 0.713987
C2    C     C_R   0.545049 0.845489 0.174391 0.713989
O5    O     O_R   0.587510 0.175890 0.993210 -0.545252
O6    O     O_R   0.412490 0.675890 0.006790 -0.545254
O7    O     O_R   0.536540 0.008150 0.130100 -0.539676
O8    O     O_R   0.463460 0.508150 0.869900 -0.539676
C3    C     C_R   0.613476 0.344617 0.001928 0.748766
C4    C     C_R   0.386523 0.844617 0.998072 0.748766
O9    O     O_3   0.483140 0.340040 0.044760 -0.374563
O10   O     O_3   0.516860 0.840040 0.955240 -0.374562
V1    V     V_3+5 0.503130 0.064190 0.991700 1.503526
V2    V     V_3+5 0.496870 0.564190 0.008300 1.503524
C5    C     C_2   0.217699 0.729762 0.008393 0.162887
C6    C     C_2   0.782300 0.229763 0.991605 0.162888
C7    C     C_2   0.182551 0.884912 0.009530 -0.293292
C8    C     C_2   0.817448 0.384913 0.990469 -0.293286
H1    H     H_    0.206890 0.017579 0.023599 0.127297
H2    H     H_    0.793110 0.517581 0.976400 0.127294
C9    C     C_2   0.287928 0.741802 0.026070 -0.136150
C10   C     C_2   0.712071 0.241806 0.973927 -0.136156
C11   C     C_2   0.316892 0.857073 0.981023 -0.067373
C12   C     C_2   0.683108 0.357072 0.018977 -0.067369
H3    H     H_    0.316924 0.639700 0.074152 0.145686
H4    H     H_    0.683075 0.139710 0.925841 0.145687
C13   C     C_R   0.926816 0.882671 0.723175 -0.034573
C14   C     C_R   0.073184 0.382674 0.276825 -0.034569
C15   C     C_R   0.569303 0.869022 0.277069 -0.094073
C16   C     C_R   0.430697 0.369022 0.722931 -0.094071
C17   C     C_R   0.932787 0.800917 0.570125 -0.149118
C18   C     C_R   0.067210 0.300952 0.429877 -0.149118
C19   C     C_R   0.961925 0.818926 0.666600 -0.166750
C20   C     C_R   0.038072 0.318956 0.333402 -0.166752
C21   C     C_R   0.862299 0.924945 0.683435 -0.193417
C22   C     C_R   0.137703 0.424928 0.316563 -0.193415
C23   C     C_R   0.831269 0.906846 0.585605 0.096881
C24   C     C_R   0.168732 0.406845 0.414394 0.096882
C25   C     C_R   0.867863 0.843670 0.529316 0.107822
C26   C     C_R   0.132136 0.343690 0.470685 0.107822
C27   C     C_R   0.765132 0.945852 0.542462 0.035348
C28   C     C_R   0.234869 0.445850 0.457537 0.035348
C29   C     C_R   0.735620 0.909337 0.445131 0.004085
C30   C     C_R   0.264381 0.409339 0.554868 0.004083
C31   C     C_R   0.775861 0.872982 0.388895 -0.023559
C32   C     C_R   0.224139 0.372994 0.611105 -0.023556
C33   C     C_R   0.840291 0.830858 0.432335 -0.236886
C34   C     C_R   0.159708 0.330883 0.567666 -0.236886
C35   C     C_R   0.727943 0.023060 0.593728 -0.193339
C36   C     C_R   0.272058 0.523059 0.406271 -0.193342
C37   C     C_R   0.663292 0.060191 0.553605 -0.023191
C38   C     C_R   0.336709 0.560187 0.446394 -0.023192
C39   C     C_R   0.632113 0.014352 0.457900 -0.011695
C40   C     C_R   0.367888 0.514349 0.542099 -0.011691
C41   C     C_R   0.667464 0.918364 0.407657 0.118439
C42   C     C_R   0.332536 0.418363 0.592343 0.118437
C43   C     C_R   0.567433 0.062716 0.409831 -0.128120
C44   C     C_R   0.432568 0.562714 0.590168 -0.128121
C45   C     C_R   0.535853 0.987166 0.320248 -0.104038
C46   C     C_R   0.464147 0.487166 0.679752 -0.104039
C47   C     C_R   0.633613 0.830976 0.322254 -0.138538
C48   C     C_R   0.366387 0.330976 0.677746 -0.138539
H5    H     H_    0.870356 0.797744 0.389593 0.155545
H6    H     H_    0.129642 0.297781 0.610409 0.155542
H7    H     H_    0.657736 0.740308 0.286925 0.106159
H8    H     H_    0.342264 0.240309 0.713074 0.106159
H9    H     H_    0.961052 0.753062 0.527271 0.120297
H10   H     H_    0.038944 0.253115 0.472733 0.120297
H11   H     H_    0.011799 0.783400 0.697128 0.113785
H12   H     H_    0.988197 0.283445 0.302876 0.113784
H13   H     H_    0.837731 0.964873 0.732041 0.096848
H14   H     H_    0.162273 0.464826 0.267955 0.096846
H15   H     H_    0.748246 0.060222 0.666426 0.134906
H16   H     H_    0.251754 0.560229 0.333574 0.134912
O11   O     O_R   0.036450 0.233070 0.130130 -0.536978
O12   O     O_R   0.963550 0.733070 0.869870 -0.536978
O13   O     O_R   0.912470 0.560570 0.006790 -0.542485
O14   O     O_R   0.087530 0.060570 0.993210 -0.542485
C49   C     C_R   0.886608 0.391254 0.000341 0.733182
C50   C     C_R   0.113392 0.891254 0.999658 0.733183
O15   O     O_R   0.032920 0.562940 0.138050 -0.538116
O16   O     O_R   0.967080 0.062940 0.861950 -0.538116
O17   O     O_R   0.084790 0.730500 0.002090 -0.536895
O18   O     O_R   0.915210 0.230500 0.997910 -0.536895
C51   C     C_R   0.044346 0.393818 0.174821 0.683652
C52   C     C_R   0.955654 0.893818 0.825179 0.683651
O19   O     O_3   0.016820 0.396170 0.955260 -0.378622
O20   O     O_3   0.983180 0.896170 0.044740 -0.378621
V3    V     V_3+5 0.996880 0.672090 0.008300 1.425535
V4    V     V_3+5 0.003120 0.172090 0.991700 1.425533
C53   C     C_3   0.189740 0.536534 0.995037 -0.650627
H17   H     H_    0.226074 0.431835 0.992423 0.184379
H18   H     H_    0.172407 0.499011 0.054562 0.197799
H19   H     H_    0.150420 0.527666 0.927575 0.216161
C54   C     C_3   0.810258 0.036534 0.004959 -0.650630
H20   H     H_    0.773924 0.931836 0.007570 0.184380
H21   H     H_    0.827592 0.999014 0.945434 0.197799
H22   H     H_    0.849577 0.027663 0.072421 0.216162
C55   C     C_2   0.756296 0.910876 0.286306 0.723234
O21   O     O_2   0.779281 0.820734 0.235801 -0.577150
O22   O     O_R   0.713917 0.055727 0.248087 -0.662843
H23   H     H_    0.704662 0.068213 0.177802 0.294235
C56   C     C_2   0.243706 0.410887 0.713695 0.723234
O23   O     O_2   0.220721 0.320745 0.764200 -0.577150
O24   O     O_R   0.286086 0.555737 0.751913 -0.662842
H24   H     H_    0.295342 0.568223 0.822198 0.294235
C57   C     C_2   0.534672 0.208437 0.446650 0.891156
O25   O     O_2   0.558589 0.362540 0.463801 -0.519698
O26   O     O_R   0.476452 0.169713 0.460632 -0.603017
H25   H     H_    0.461051 0.274832 0.492551 0.333632
C58   C     C_2   0.465329 0.708435 0.553350 0.891154
O27   O     O_2   0.441411 0.862536 0.536196 -0.519699
O28   O     O_R   0.523551 0.669714 0.539373 -0.603016
H26   H     H_    0.538952 0.774831 0.507453 0.333633
C59   C     C_3   0.279913 0.990961 0.906062 -0.659689
H27   H     H_    0.308578 0.033841 0.860563 0.205830
H28   H     H_    0.235855 0.924992 0.859692 0.228019
H29   H     H_    0.268064 0.118235 0.938671 0.212730
C60   C     C_3   0.720088 0.490949 0.093944 -0.659698
H30   H     H_    0.691421 0.533840 0.139437 0.205829
H31   H     H_    0.764141 0.424966 0.140317 0.228019
H32   H     H_    0.731945 0.618217 0.061340 0.212737
C61   C     C_2   0.468743 0.039490 0.267523 0.833570
O29   O     O_2   0.451792 0.201873 0.262364 -0.531743
O30   O     O_R   0.425799 0.902699 0.220389 -0.671713
H33   H     H_    0.381908 0.954915 0.187212 0.303707
C62   C     C_2   0.531258 0.539492 0.732478 0.833569
O31   O     O_2   0.548207 0.701877 0.737639 -0.531741
O32   O     O_R   0.574201 0.402699 0.779611 -0.671713
H34   H     H_    0.618093 0.454917 0.812788 0.303704
C63   C     C_2   0.630335 0.128969 0.619400 0.804767
O33   O     O_2   0.651241 0.264635 0.668365 -0.533665
O34   O     O_R   0.577443 0.034366 0.628522 -0.638400
H35   H     H_    0.559489 0.093781 0.676025 0.342684
C64   C     C_2   0.369666 0.628963 0.380599 0.804771
O35   O     O_2   0.348758 0.764623 0.331629 -0.533668
O36   O     O_R   0.422561 0.534364 0.371481 -0.638400
H36   H     H_    0.440514 0.593777 0.323977 0.342683

loop_
_geom_bond_atom_site_label_1
_geom_bond_atom_site_label_2
_ccdc_geom_bond_type
O15   C51   A    
O11   V4    S    
O4    V2    S    
C53   H17   S    
C31   C55   S    
C39   C43   A    
C15   C45   A    
O26   H25   S    
C18   C26   A    
O2    C4    A    
C2    O7    A    
C54   H20   S    
O17   V3    S    
O34   H35   S    
C31   C33   A    
O5    C3    A    
C56   O24   S    
C29   C41   A    
C5    C9    S    
C33   H5    S    
C6    C10   S    
C48   H8    S    
C7    H1    S    
C10   C12   D    
C58   O27   D    
C57   O26   S    
C38   C64   S    
O28   H26   S    
C14   C22   A    
C44   C46   A    
O6    V2    S    
C29   C31   A    
C13   C52   S    
C17   C19   A    
C36   C38   A    
C60   H32   S    
O1    C3    A    
O24   H24   S    
C6    C54   S    
C9    H3    S    
C7    C50   S    
C18   H10   S    
O13   V3    S    
C49   O18   A    
C17   H9    S    
C1    C16   S    
C28   C36   A    
C32   C34   A    
C2    C15   S    
C64   O35   D    
C19   H11   S    
C55   O22   S    
C8    C49   S    
C30   C42   A    
C46   C62   S    
C44   C58   S    
C43   C57   S    
C25   C33   A    
C54   H21   S    
C28   C30   A    
C41   C47   A    
C38   C40   A    
C37   C39   A    
C42   C48   A    
C47   H7    S    
C43   C45   A    
C55   O21   D    
C15   C47   A    
C37   C63   S    
C16   C48   A    
C23   C25   A    
C59   H29   S    
O13   C49   A    
C23   C27   A    
O5    V1    S    
C3    C12   S    
O3    C1    A    
C40   C44   A    
C35   C37   A    
O16   C52   A    
O14   V4    S    
C64   O36   S    
C32   C56   S    
O6    C4    A    
O1    V2    S    
O19   V4    S    
O2    V1    S    
C27   C29   A    
C60   H30   S    
C26   C34   A    
O14   C50   A    
C12   C60   S    
C8    H2    S    
C53   H19   S    
C39   C41   A    
C63   O33   D    
O4    C2    A    
C5    C53   S    
O30   H33   S    
C54   H22   S    
O3    V1    S    
C61   O30   S    
C62   O31   D    
C22   H14   S    
O12   C52   A    
C21   H13   S    
C10   H4    S    
C35   H15   S    
C36   H16   S    
C11   C59   S    
C45   C61   S    
O36   H36   S    
C34   H6    S    
O12   V3    S    
C50   O17   A    
O15   V3    S    
C56   O23   D    
C13   C19   A    
C14   C20   A    
C4    C11   S    
C17   C25   A    
C59   H28   S    
O7    V1    S    
C16   C46   A    
C1    O8    A    
C21   C23   A    
O18   V4    S    
C57   O25   D    
C22   C24   A    
C27   C35   A    
O20   V3    S    
C61   O29   D    
C24   C26   A    
C5    C7    D    
C18   C20   A    
C40   C42   A    
C6    C8    D    
C9    C11   D    
O32   H34   S    
C60   H31   S    
C30   C32   A    
C24   C28   A    
O11   C51   A    
C53   H18   S    
O9    V2    S    
C13   C21   A    
O22   H23   S    
C63   O34   S    
O10   V1    S    
O8    V2    S    
O16   V4    S    
C62   O32   S    
C14   C51   S    
C59   H27   S    
C20   H12   S    
C58   O28   S    
