data_str_m9_o11_o18_f0_sra.sym.37
_audit_creation_date              2012-12-11T14:21:15-0500
_audit_creation_method            fapswitch 2.2
_symmetry_space_group_name_H-M    P1
_symmetry_Int_Tables_number       1
_space_group_crystal_system       triclinic
_cell_length_a                    21.950668
_cell_length_b                    7.207667
_cell_length_c                    14.93322
_cell_angle_alpha                 90.549781
_cell_angle_beta                  106.974518
_cell_angle_gamma                 90.182589
_cell_volume                      2259.55403868

loop_
_atom_site_label
_atom_site_type_symbol
_atom_type_description
_atom_site_fract_x
_atom_site_fract_y
_atom_site_fract_z
_atom_type_partial_charge
O1    O     O_R   0.584770 0.505770 0.002090 -0.540987
O2    O     O_R   0.415230 0.005770 0.997910 -0.540693
O3    O     O_R   0.467060 0.173340 0.861950 -0.538282
O4    O     O_R   0.532940 0.673340 0.138050 -0.538304
C1    C     C_R   0.454969 0.343118 0.825940 0.678280
C2    C     C_R   0.544933 0.845396 0.173919 0.678221
O5    O     O_R   0.587510 0.175890 0.993210 -0.540975
O6    O     O_R   0.412490 0.675890 0.006790 -0.541281
O7    O     O_R   0.536540 0.008150 0.130100 -0.535893
O8    O     O_R   0.463460 0.508150 0.869900 -0.536617
C3    C     C_R   0.612978 0.345108 0.997463 0.731410
C4    C     C_R   0.387025 0.844724 0.002485 0.732284
O9    O     O_3   0.483140 0.340040 0.044760 -0.378439
O10   O     O_3   0.516860 0.840040 0.955240 -0.378584
V1    V     V_3+5 0.503130 0.064190 0.991700 1.424585
V2    V     V_3+5 0.496870 0.564190 0.008300 1.423408
C5    C     C_2   0.213586 0.727729 0.002154 -0.098002
C6    C     C_2   0.785825 0.227289 0.996501 -0.127101
C7    C     C_2   0.180304 0.887011 0.996041 -0.292018
C8    C     C_2   0.819730 0.386402 0.003943 -0.280033
H1    H     H_    0.190139 0.596935 0.007048 0.140440
H2    H     H_    0.808709 0.096355 0.990411 0.140833
H3    H     H_    0.202165 0.019254 0.989867 0.128829
H4    H     H_    0.798365 0.518738 0.011189 0.137663
C9    C     C_2   0.281465 0.714380 0.001933 -0.123429
C10   C     C_2   0.717936 0.214687 0.996788 -0.129919
C11   C     C_2   0.319933 0.861070 0.003439 -0.301510
C12   C     C_2   0.680094 0.361693 0.996538 -0.295514
H5    H     H_    0.300256 0.575359 0.001205 0.137137
H6    H     H_    0.698567 0.075761 0.996442 0.138858
H7    H     H_    0.302348 0.000885 0.004968 0.131394
H8    H     H_    0.698150 0.501489 0.995923 0.133562
C13   C     C_R   0.928235 0.879753 0.724076 -0.032420
C14   C     C_R   0.071727 0.393093 0.276390 -0.035428
C15   C     C_R   0.573898 0.858895 0.275045 -0.024368
C16   C     C_R   0.426102 0.344936 0.724500 -0.027255
C17   C     C_R   0.938771 0.799228 0.572533 -0.166166
C18   C     C_R   0.062845 0.467330 0.429648 -0.167391
C19   C     C_R   0.965792 0.823640 0.668389 -0.154332
C20   C     C_R   0.035458 0.452118 0.333450 -0.152797
C21   C     C_R   0.863159 0.907686 0.684393 -0.196899
C22   C     C_R   0.136058 0.352540 0.315406 -0.197782
C23   C     C_R   0.833491 0.877862 0.587378 0.084591
C24   C     C_R   0.166323 0.373990 0.412897 0.084426
C25   C     C_R   0.872902 0.827511 0.530103 0.049242
C26   C     C_R   0.128040 0.427926 0.471237 0.049991
C27   C     C_R   0.766041 0.892986 0.546624 0.061473
C28   C     C_R   0.233422 0.348337 0.453111 0.061725
C29   C     C_R   0.738567 0.858656 0.448761 0.015678
C30   C     C_R   0.261678 0.376857 0.551323 0.016018
C31   C     C_R   0.779509 0.816086 0.394142 -0.175097
C32   C     C_R   0.221692 0.423335 0.606830 -0.175912
C33   C     C_R   0.845519 0.801641 0.432640 -0.024601
C34   C     C_R   0.155991 0.447148 0.568961 -0.026798
C35   C     C_R   0.724943 0.939415 0.600884 -0.179904
C36   C     C_R   0.273443 0.296859 0.398001 -0.180231
C37   C     C_R   0.659654 0.952204 0.561314 -0.201072
C38   C     C_R   0.338400 0.273793 0.437032 -0.201111
C39   C     C_R   0.632129 0.919086 0.466219 0.144535
C40   C     C_R   0.366643 0.300809 0.532448 0.145137
C41   C     C_R   0.670828 0.870647 0.408280 0.091414
C42   C     C_R   0.329130 0.354429 0.591282 0.091021
C43   C     C_R   0.565862 0.936148 0.428509 -0.162152
C44   C     C_R   0.432348 0.271163 0.569630 -0.163187
C45   C     C_R   0.537033 0.908263 0.333224 -0.172185
C46   C     C_R   0.461640 0.290062 0.665295 -0.169747
C47   C     C_R   0.639785 0.838056 0.311917 -0.207734
C48   C     C_R   0.360918 0.380094 0.688028 -0.209257
H9    H     H_    0.664957 0.799995 0.262581 0.100342
H10   H     H_    0.336626 0.421144 0.738019 0.102947
H11   H     H_    0.486079 0.926688 0.304673 0.104313
H12   H     H_    0.511922 0.259977 0.693389 0.105661
H13   H     H_    0.630328 0.989070 0.605911 0.120590
H14   H     H_    0.366851 0.232951 0.391800 0.120666
H15   H     H_    0.837264 0.948027 0.732413 0.090298
H16   H     H_    0.161200 0.311872 0.266479 0.092142
H17   H     H_    0.761472 0.796559 0.319636 0.164230
H18   H     H_    0.240199 0.438519 0.681528 0.164044
O11   O     O_R   0.036450 0.233070 0.130130 -0.538958
O12   O     O_R   0.963550 0.733070 0.869870 -0.537645
O13   O     O_R   0.912470 0.560570 0.006790 -0.541192
O14   O     O_R   0.087530 0.060570 0.993210 -0.544871
C49   C     C_R   0.887000 0.391728 0.002640 0.733533
C50   C     C_R   0.112999 0.892087 0.997326 0.731797
O15   O     O_R   0.032920 0.562940 0.138050 -0.538608
O16   O     O_R   0.967080 0.062940 0.861950 -0.539344
O17   O     O_R   0.084790 0.730500 0.002090 -0.536764
O18   O     O_R   0.915210 0.230500 0.997910 -0.539632
C51   C     C_R   0.044599 0.395546 0.174580 0.684862
C52   C     C_R   0.955519 0.893225 0.825561 0.684088
O19   O     O_3   0.016820 0.396170 0.955260 -0.376717
O20   O     O_3   0.983180 0.896170 0.044740 -0.376951
V3    V     V_3+5 0.996880 0.672090 0.008300 1.448873
V4    V     V_3+5 0.003120 0.172090 0.991700 1.435669
H19   H     H_    0.016114 0.797278 0.699341 0.134466
H20   H     H_    0.985875 0.488559 0.303233 0.140012
H21   H     H_    0.741233 0.967464 0.674893 0.120572
H22   H     H_    0.256483 0.271765 0.323766 0.119481
H23   H     H_    0.536395 0.974105 0.472684 0.110926
H24   H     H_    0.460869 0.228879 0.524791 0.110853
C53   C     C_2   0.884644 0.763845 0.367914 0.352481
H25   H     H_    0.934342 0.804283 0.386052 0.044021
O21   O     O_2   0.861200 0.689076 0.291785 -0.536141
C54   C     C_2   0.117719 0.488109 0.634504 0.354261
H26   H     H_    0.067446 0.454359 0.616147 0.044546
O22   O     O_2   0.142475 0.557936 0.711486 -0.532795
H27   H     H_    0.970173 0.752499 0.533396 0.096677
H28   H     H_    0.032454 0.517019 0.469768 0.096515

loop_
_geom_bond_atom_site_label_1
_geom_bond_atom_site_label_2
_ccdc_geom_bond_type
C43   C45   A    
C53   H25   S    
O14   V4    S    
C14   C22   A    
C50   O17   A    
C36   H22   S    
O2    C4    A    
C2    O7    A    
C54   O22   D    
C27   C29   A    
C10   C12   D    
O5    C3    A    
C13   C19   A    
C14   C20   A    
C34   C54   S    
C17   H27   S    
C16   C46   A    
C37   C39   A    
C15   C45   A    
C38   C40   A    
C1    C16   S    
C2    C15   S    
C40   C42   A    
C37   H13   S    
C43   H23   S    
O16   V4    S    
O15   V3    S    
C46   H12   S    
C8    H4    S    
C24   C26   A    
C29   C31   A    
C6    C10   S    
C30   C32   A    
C28   C30   A    
C49   O18   A    
C25   C33   A    
O6    V2    S    
C18   H28   S    
C21   C23   A    
C35   H21   S    
C22   C24   A    
C20   H20   S    
C32   H18   S    
C54   H26   S    
O13   C49   A    
C32   C34   A    
C9    H5    S    
O18   V4    S    
C39   C41   A    
C29   C41   A    
C4    C11   S    
C11   H7    S    
C12   H8    S    
O11   V4    S    
O4    C2    A    
O16   C52   A    
C33   C53   S    
O15   C51   A    
C45   H11   S    
C5    H1    S    
C47   H9    S    
C44   C46   A    
O4    V2    S    
C7    H3    S    
C31   H17   S    
C21   H15   S    
O13   V3    S    
C41   C47   A    
C15   C47   A    
O6    C4    A    
C26   C34   A    
O1    V2    S    
O2    V1    S    
C23   C25   A    
C19   H19   S    
C10   H6    S    
O14   C50   A    
C35   C37   A    
C30   C42   A    
C8    C49   S    
C17   C25   A    
C7    C50   S    
O3    V1    S    
C38   H14   S    
C27   C35   A    
C53   O21   D    
C28   C36   A    
C6    H2    S    
C39   C43   A    
O3    C1    A    
C16   C48   A    
C9    C11   D    
C22   H16   S    
C42   C48   A    
C40   C44   A    
C13   C21   A    
O7    V1    S    
C14   C51   S    
C5    C9    S    
C1    O8    A    
C17   C19   A    
O8    V2    S    
C13   C52   S    
O19   V4    S    
C18   C20   A    
C3    C12   S    
O17   V3    S    
O5    V1    S    
O20   V3    S    
C5    C7    D    
C36   C38   A    
C6    C8    D    
O12   C52   A    
C18   C26   A    
C44   H24   S    
C48   H10   S    
O9    V2    S    
O10   V1    S    
O11   C51   A    
O1    C3    A    
C31   C33   A    
O12   V3    S    
C23   C27   A    
C24   C28   A    
