data_str_m2_o1_o14_f0_pcu.sym.64
_audit_creation_date              2012-10-26T21:00:44-0400
_audit_creation_method            fapswitch 2.2
_symmetry_space_group_name_H-M    P1
_symmetry_Int_Tables_number       1
_space_group_crystal_system       triclinic
_cell_length_a                    10.82771
_cell_length_b                    9.497098
_cell_length_c                    10.788962
_cell_angle_alpha                 90.000023
_cell_angle_beta                  90.54935
_cell_angle_gamma                 89.999885
_cell_volume                      1109.39763567

loop_
_atom_site_label
_atom_site_type_symbol
_atom_type_description
_atom_site_fract_x
_atom_site_fract_y
_atom_site_fract_z
_atom_type_partial_charge
C1    C     C_R   0.262003 0.500016 0.500281 0.543179
C2    C     C_R   0.488941 0.500536 0.737733 0.544836
C3    C     C_R   0.575498 0.760290 0.106268 0.125276
C4    C     C_R   0.423468 0.759954 0.893749 0.125133
C5    C     C_R   0.539959 0.886936 0.050293 -0.132612
C6    C     C_R   0.458304 0.886742 0.949926 -0.132630
C7    C     C_R   0.473577 0.631103 0.939989 0.026727
C8    C     C_R   0.525895 0.631208 0.060002 0.026787
C9    C     C_R   0.522747 0.502552 0.127269 -0.016538
C10   C     C_R   0.477198 0.502477 0.872717 -0.016524
C11   C     C_R   0.507816 0.375068 0.063566 -0.165038
C12   C     C_R   0.737997 0.500015 0.499707 0.543286
C13   C     C_R   0.492550 0.375046 0.936414 -0.165087
C14   C     C_R   0.063825 0.372390 0.501629 -0.148757
C15   C     C_R   0.936187 0.372379 0.499446 -0.148426
C16   C     C_R   0.871796 0.500255 0.499311 0.021145
C17   C     C_R   0.128204 0.500261 0.500660 0.021145
C18   C     C_3   0.242316 0.096859 0.302586 -0.012045
C19   C     C_3   0.238943 0.033515 0.172031 -0.273925
C20   C     C_3   0.111299 0.975514 0.139672 -0.475782
C21   C     C_3   0.757281 0.096363 0.698393 -0.012466
C22   C     C_3   0.759225 0.033199 0.829031 -0.273888
C23   C     C_R   0.936107 0.628311 0.499325 -0.140526
C24   C     C_3   0.886255 0.974261 0.862506 -0.475643
C25   C     C_R   0.063883 0.628311 0.499524 -0.140297
C26   C     C_R   0.427004 0.075153 0.417191 0.343934
C27   C     C_R   0.573018 0.075183 0.582810 0.344044
C28   C     C_R   0.429864 0.924815 0.416579 -0.024857
C29   C     C_R   0.570147 0.924815 0.583419 -0.025009
C30   C     C_R   0.511048 0.500549 0.262262 0.544847
Cu1   Cu    Cu3+1 0.500000 0.640660 0.500000 0.896681
Cu2   Cu    Cu3+1 0.500000 0.359340 0.500000 1.040798
H1    H     H_    0.508905 0.274911 0.111667 0.154833
H2    H     H_    0.623166 0.865303 0.650385 0.131931
H3    H     H_    0.708611 0.664601 0.215830 0.236684
H4    H     H_    0.645045 0.813877 0.275627 0.260191
H5    H     H_    0.290959 0.663672 0.783848 0.236685
H6    H     H_    0.354183 0.813236 0.724221 0.260202
H7    H     H_    0.176483 0.186442 0.303848 0.158836
H8    H     H_    0.208208 0.020513 0.372988 0.091973
H9    H     H_    0.264002 0.115861 0.103459 0.171045
H10   H     H_    0.307182 0.947061 0.164909 0.166167
H11   H     H_    0.085060 0.891693 0.206259 0.154167
H12   H     H_    0.491817 0.274890 0.888308 0.154938
H13   H     H_    0.112705 0.929604 0.045043 0.164629
H14   H     H_    0.041306 0.060982 0.141797 0.146958
H15   H     H_    0.823541 0.185552 0.697639 0.158503
H16   H     H_    0.791659 0.019801 0.628317 0.092142
H17   H     H_    0.734089 0.115846 0.897295 0.170854
H18   H     H_    0.690416 0.947292 0.835681 0.166263
H19   H     H_    0.912498 0.890073 0.796278 0.154413
H20   H     H_    0.883815 0.928591 0.957200 0.165180
H21   H     H_    0.956788 0.059169 0.860787 0.146798
H22   H     H_    0.574420 0.986202 0.085957 0.123687
H23   H     H_    0.423398 0.985842 0.914333 0.123604
H24   H     H_    0.111753 0.272384 0.504039 0.120386
H25   H     H_    0.888269 0.272355 0.497931 0.120710
H26   H     H_    0.888001 0.728348 0.498997 0.123950
H27   H     H_    0.111979 0.728348 0.498930 0.123874
H28   H     H_    0.376839 0.865363 0.349571 0.131955
N1    N     N_R   0.500000 0.852070 0.500000 -0.299504
N2    N     N_R   0.500000 0.147940 0.500000 -0.201511
N3    N     N_3   0.675655 0.765229 0.194691 -0.631896
N4    N     N_3   0.323521 0.764441 0.805071 -0.631609
O1    O     O_R   0.319640 0.618740 0.499990 -0.519687
O2    O     O_3   0.638711 0.152034 0.671215 -0.540796
O3    O     O_R   0.680360 0.618740 0.500010 -0.519688
O4    O     O_R   0.319620 0.381170 0.499990 -0.480746
O5    O     O_R   0.680380 0.381170 0.500010 -0.480412
O6    O     O_R   0.500000 0.618810 0.319650 -0.512026
O7    O     O_R   0.500000 0.618810 0.680350 -0.512003
O8    O     O_R   0.499970 0.381240 0.319640 -0.454228
O9    O     O_R   0.500030 0.381240 0.680360 -0.454260
O10   O     O_3   0.361371 0.151852 0.328668 -0.540957

loop_
_geom_bond_atom_site_label_1
_geom_bond_atom_site_label_2
_ccdc_geom_bond_type
Cu1   O6    S    
C24   H20   S    
C23   H26   S    
C14   H24   S    
C12   O5    A    
C29   N1    A    
Cu2   O5    S    
C27   N2    A    
C3    N3    S    
C21   O2    S    
C7    C10   A    
H4    N3    S    
C11   C13   A    
C4    N4    S    
C1    O1    A    
C19   C20   S    
C18   O10   S    
C19   H10   S    
C22   H18   S    
C6    H23   S    
Cu2   O4    S    
C21   H16   S    
C17   C25   A    
C28   N1    A    
C20   H11   S    
C24   H19   S    
Cu1   O7    S    
C26   N2    A    
C3    C5    A    
Cu2   N2    S    
C7    C8    A    
Cu2   O8    S    
C27   O2    S    
Cu1   Cu2   S    
C21   C22   S    
Cu1   O3    S    
C15   H25   S    
C14   C17   A    
C9    C11   A    
C2    O9    A    
C2    O7    A    
C9    C30   S    
C22   H17   S    
C26   C28   A    
C30   O6    A    
C3    C8    A    
C16   C23   A    
H6    N4    S    
C23   C25   A    
C5    C6    A    
C12   O3    A    
C22   C24   S    
C27   C29   A    
C15   C16   A    
C2    C10   S    
C19   H9    S    
C5    H22   S    
C11   H1    S    
C1    O4    A    
C28   H28   S    
C4    C7    A    
C4    C6    A    
C18   C19   S    
C20   H13   S    
Cu2   O9    S    
Cu1   O1    S    
C18   H7    S    
Cu1   N1    S    
C14   C15   A    
C8    C9    A    
H3    N3    S    
C25   H27   S    
C26   O10   S    
C24   H21   S    
C1    C17   S    
C29   H2    S    
C13   H12   S    
C20   H14   S    
C30   O8    A    
C12   C16   S    
H5    N4    S    
C21   H15   S    
C10   C13   A    
C18   H8    S    
