data_str_m2_o10_o13_f0_pcu.sym.153
_audit_creation_date              2012-12-10T16:42:57-0500
_audit_creation_method            fapswitch 2.2
_symmetry_space_group_name_H-M    P1
_symmetry_Int_Tables_number       1
_space_group_crystal_system       triclinic
_cell_length_a                    7.565609
_cell_length_b                    8.674214
_cell_length_c                    12.956195
_cell_angle_alpha                 86.573874
_cell_angle_beta                  77.931112
_cell_angle_gamma                 102.397191
_cell_volume                      807.189216196

loop_
_atom_site_label
_atom_site_type_symbol
_atom_type_description
_atom_site_fract_x
_atom_site_fract_y
_atom_site_fract_z
_atom_type_partial_charge
C1    C     C_R   0.453073 0.200091 0.504965 0.869379
C2    C     C_R   0.546927 0.799910 0.495034 0.869262
C3    C     C_R   0.465032 0.498452 0.701045 0.805828
C4    C     C_R   0.534982 0.501641 0.298948 0.805863
C5    C     C_R   0.556683 0.502968 0.184625 -0.101941
C6    C     C_R   0.443366 0.497439 0.815352 -0.101856
C7    C     C_R   0.260698 0.390887 0.991089 0.184969
C8    C     C_R   0.739311 0.610032 0.008925 0.185000
C9    C     C_R   0.281667 0.405447 0.881696 -0.266601
C10   C     C_R   0.718297 0.595228 0.118334 -0.266622
C11   C     C_R   0.582827 0.587736 0.857847 0.126598
C12   C     C_R   0.417260 0.412823 0.142073 0.126660
C13   C     C_R   0.582096 0.551099 0.966005 0.048671
C14   C     C_R   0.417975 0.449701 0.033953 0.048640
C15   C     C_2   0.427192 0.031732 0.513275 -0.378428
C16   C     C_2   0.572808 0.968268 0.486725 -0.378443
Cu1   Cu    Cu3+1 0.686350 0.517570 0.488220 0.930701
Cu2   Cu    Cu3+1 0.313650 0.482430 0.511780 0.930722
H1    H     H_    0.287491 0.959904 0.543753 0.163658
H2    H     H_    0.712508 0.040095 0.456247 0.163652
N1    N     N_2   0.033570 0.455950 0.529530 -0.053821
N2    N     N_2   0.966430 0.544050 0.470470 -0.053815
O1    O     O_R   0.621060 0.286250 0.492350 -0.591334
O2    O     O_R   0.378940 0.713750 0.507650 -0.591345
O3    O     O_R   0.306310 0.256580 0.512240 -0.596793
O4    O     O_R   0.693690 0.743420 0.487760 -0.596833
O5    O     O_R   0.631800 0.512400 0.642670 -0.583700
O6    O     O_R   0.368200 0.487600 0.357330 -0.583670
O7    O     O_R   0.317060 0.482730 0.662570 -0.588822
O8    O     O_R   0.682940 0.517270 0.337430 -0.588803
C17   C     C_3   0.293889 0.262175 0.207333 -0.817167
H3    H     H_    0.158321 0.282625 0.248727 0.245909
H4    H     H_    0.275264 0.164069 0.156568 0.220671
H5    H     H_    0.359918 0.218426 0.268540 0.217878
C18   C     C_3   0.706382 0.738073 0.792404 -0.817432
H6    H     H_    0.841805 0.717316 0.751162 0.245985
H7    H     H_    0.640477 0.781650 0.731073 0.217981
H8    H     H_    0.725140 0.836392 0.842943 0.220683
H9    H     H_    0.831574 0.653053 0.152158 0.165490
H10   H     H_    0.168304 0.347624 0.847934 0.165542
C19   C     C_3   0.065235 0.326722 0.057163 -0.858340
H11   H     H_    0.960223 0.336602 0.010159 0.236336
H12   H     H_    0.041263 0.199093 0.084851 0.230716
H13   H     H_    0.037028 0.397683 0.124645 0.243960
C20   C     C_3   0.934776 0.674590 0.942928 -0.858197
H14   H     H_    0.039859 0.665083 0.989994 0.236168
H15   H     H_    0.963360 0.603634 0.875494 0.243947
H16   H     H_    0.958344 0.802196 0.915192 0.230640
C21   C     C_3   0.922745 0.303346 0.580024 -0.359063
H17   H     H_    0.996477 0.256091 0.635603 0.152192
H18   H     H_    0.909554 0.219352 0.519718 0.164680
H19   H     H_    0.788535 0.310412 0.629750 0.188432
C22   C     C_3   0.077255 0.696653 0.419976 -0.359069
H20   H     H_    0.003523 0.743908 0.364396 0.152179
H21   H     H_    0.211465 0.689588 0.370250 0.188418
H22   H     H_    0.090446 0.780648 0.480282 0.164688

loop_
_geom_bond_atom_site_label_1
_geom_bond_atom_site_label_2
_ccdc_geom_bond_type
C15   H1    S    
C17   H4    S    
C8    C13   A    
C1    C15   S    
C13   C14   A    
C2    C16   S    
C7    C14   A    
Cu2   N1    S    
C11   C13   A    
C19   H11   S    
Cu1   N2    S    
C16   H2    S    
C3    C6    S    
C21   H19   S    
C6    C9    A    
N1    C21   S    
Cu1   Cu2   S    
C17   H5    S    
C5    C10   A    
C2    O4    A    
Cu2   O7    S    
C22   H20   S    
C1    O3    A    
Cu1   O8    S    
C19   H12   S    
Cu1   O1    S    
Cu2   O3    S    
Cu2   O2    S    
Cu1   O4    S    
C3    O5    A    
C18   H7    S    
C12   C14   A    
C1    O1    A    
N2    C22   S    
C7    C9    A    
C22   H21   S    
C12   C17   S    
C2    O2    A    
C19   H13   S    
C22   H22   S    
C15   C16   D    
Cu1   O5    S    
C20   H14   S    
C18   H8    S    
Cu2   O6    S    
C5    C12   A    
C8    C10   A    
C21   H17   S    
C20   H15   S    
C6    C11   A    
C3    O7    A    
C8    C20   S    
C10   H9    S    
C20   H16   S    
C4    O6    A    
N1    N2    D    
C11   C18   S    
C9    H10   S    
C4    O8    A    
C17   H3    S    
C7    C19   S    
C4    C5    S    
C21   H18   S    
C18   H6    S    
