data_str_m2_o10_o13_f0_pcu.sym.17
_audit_creation_date              2012-10-26T19:57:48-0400
_audit_creation_method            fapswitch 2.2
_symmetry_space_group_name_H-M    P1
_symmetry_Int_Tables_number       1
_space_group_crystal_system       triclinic
_cell_length_a                    7.605232
_cell_length_b                    8.711359
_cell_length_c                    12.970519
_cell_angle_alpha                 85.38789
_cell_angle_beta                  79.2417
_cell_angle_gamma                 103.760867
_cell_volume                      812.941416398

loop_
_atom_site_label
_atom_site_type_symbol
_atom_type_description
_atom_site_fract_x
_atom_site_fract_y
_atom_site_fract_z
_atom_type_partial_charge
C1    C     C_R   0.452042 0.199726 0.503552 0.542244
C2    C     C_R   0.729998 0.551182 0.117764 -0.139855
C3    C     C_R   0.605383 0.529985 0.857559 -0.135900
C4    C     C_R   0.394624 0.470007 0.142438 -0.135902
C5    C     C_R   0.588958 0.522305 0.966347 0.048262
C6    C     C_R   0.411049 0.477686 0.033651 0.048259
C7    C     C_2   0.426527 0.030715 0.505377 -0.157787
C8    C     C_2   0.573472 0.969284 0.494627 -0.157789
C9    C     C_3   0.916651 0.364527 0.627888 -0.062081
C10   C     C_3   0.964666 0.208389 0.656747 -0.403568
C11   C     C_3   0.083349 0.635484 0.372116 -0.062096
C12   C     C_R   0.547958 0.800273 0.496450 0.542242
C13   C     C_3   0.035333 0.791621 0.343274 -0.403585
C14   C     C_R   0.466206 0.495964 0.701074 0.539110
C15   C     C_R   0.533794 0.504038 0.298927 0.539112
C16   C     C_R   0.553360 0.508018 0.184862 0.001852
C17   C     C_R   0.446644 0.491986 0.815138 0.001852
C18   C     C_R   0.252326 0.441775 0.991145 -0.143289
C19   C     C_R   0.747682 0.558238 0.008853 -0.143286
C20   C     C_R   0.270008 0.448843 0.882234 -0.139860
Cu1   Cu    Cu3+1 0.686350 0.517570 0.488220 0.912758
Cu2   Cu    Cu3+1 0.313650 0.482430 0.511780 0.912772
H1    H     H_    0.258115 0.433721 0.193769 0.112930
H2    H     H_    0.927570 0.438037 0.693498 0.118814
H3    H     H_    0.773631 0.322251 0.622068 0.191389
H4    H     H_    0.904147 0.772173 0.315313 0.184574
H5    H     H_    0.031092 0.861432 0.411245 0.158310
H6    H     H_    0.144896 0.864726 0.276723 0.087005
H7    H     H_    0.226364 0.677750 0.377928 0.191390
H8    H     H_    0.072404 0.561980 0.306500 0.118822
H9    H     H_    0.286009 0.956602 0.515741 0.124973
H10   H     H_    0.713989 0.043396 0.484263 0.124973
H11   H     H_    0.741893 0.566275 0.806224 0.112926
H12   H     H_    0.854454 0.580736 0.149207 0.120742
H13   H     H_    0.145552 0.419318 0.850790 0.120745
H14   H     H_    0.115146 0.407951 0.041954 0.104470
H15   H     H_    0.884867 0.592078 0.958043 0.104465
H16   H     H_    0.968888 0.138551 0.588787 0.158296
H17   H     H_    0.095824 0.227849 0.684724 0.184562
H18   H     H_    0.855102 0.135301 0.723297 0.086990
N1    N     N_2   0.033570 0.455950 0.529530 -0.131211
N2    N     N_2   0.966430 0.544050 0.470470 -0.131219
O1    O     O_R   0.621060 0.286250 0.492350 -0.516336
O2    O     O_R   0.378940 0.713750 0.507650 -0.516332
O3    O     O_R   0.306310 0.256580 0.512240 -0.507475
O4    O     O_R   0.693690 0.743420 0.487760 -0.507499
O5    O     O_R   0.631800 0.512400 0.642670 -0.535112
O6    O     O_R   0.368200 0.487600 0.357330 -0.535109
O7    O     O_R   0.317060 0.482730 0.662570 -0.514772
O8    O     O_R   0.682940 0.517270 0.337430 -0.514774

loop_
_geom_bond_atom_site_label_1
_geom_bond_atom_site_label_2
_ccdc_geom_bond_type
C4    C16   A    
Cu2   O6    S    
C9    H2    S    
C14   O5    A    
C5    C19   A    
C2    C16   A    
N1    N2    D    
C9    N1    S    
C8    C12   S    
C10   H16   S    
C2    H12   S    
C9    H3    S    
C7    C8    D    
C13   H6    S    
Cu1   O4    S    
Cu1   O1    S    
Cu1   Cu2   S    
C11   C13   S    
C14   C17   S    
C1    O3    A    
C15   O6    A    
Cu2   O7    S    
C4    C6    A    
Cu1   O8    S    
C3    C17   A    
C18   C20   A    
C5    C6    A    
C6    C18   A    
Cu2   O2    S    
C13   H4    S    
C14   O7    A    
C7    H9    S    
C3    H11   S    
C15   C16   S    
Cu2   N1    S    
C17   C20   A    
C11   H7    S    
C11   N2    S    
C12   O4    A    
Cu2   O3    S    
C9    C10   S    
C15   O8    A    
C4    H1    S    
C12   O2    A    
C10   H18   S    
C19   H15   S    
Cu1   O5    S    
C2    C19   A    
C1    C7    S    
C20   H13   S    
C18   H14   S    
C1    O1    A    
C13   H5    S    
Cu1   N2    S    
C11   H8    S    
C10   H17   S    
C3    C5    A    
C8    H10   S    
