data_str_m3_o10_o17_f0_pcu.sym.104
_audit_creation_date              2012-12-10T16:52:02-0500
_audit_creation_method            fapswitch 2.2
_symmetry_space_group_name_H-M    P1
_symmetry_Int_Tables_number       1
_space_group_crystal_system       triclinic
_cell_length_a                    7.890811
_cell_length_b                    8.59661
_cell_length_c                    14.916636
_cell_angle_alpha                 93.527956
_cell_angle_beta                  84.800763
_cell_angle_gamma                 93.191415
_cell_volume                      1004.50742109

loop_
_atom_site_label
_atom_site_type_symbol
_atom_type_description
_atom_site_fract_x
_atom_site_fract_y
_atom_site_fract_z
_atom_type_partial_charge
C1    C     C_R   0.544482 0.793715 0.497983 0.874251
C2    C     C_R   0.565541 0.640611 0.814996 -0.128185
C3    C     C_R   0.498304 0.492860 0.232191 -0.267283
C4    C     C_R   0.501696 0.507140 0.767809 -0.267283
C5    C     C_R   0.558131 0.626935 0.190075 0.715458
C6    C     C_R   0.441869 0.373065 0.809925 0.715459
C7    C     C_R   0.554903 0.632421 0.097645 -0.218101
C8    C     C_R   0.445098 0.367579 0.902355 -0.218101
C9    C     C_R   0.498630 0.497805 0.047019 -0.138597
C10   C     C_R   0.501370 0.502195 0.952981 -0.138597
C11   C     C_R   0.440750 0.358821 0.090279 -0.071218
C12   C     C_R   0.455518 0.206285 0.502017 0.874251
C13   C     C_R   0.559250 0.641179 0.909721 -0.071218
C14   C     C_R   0.605331 0.770473 0.055259 0.653047
C15   C     C_R   0.394669 0.229527 0.944741 0.653046
C16   C     C_2   0.360208 0.225975 0.237097 0.623510
C17   C     C_2   0.639791 0.774025 0.762903 0.623510
C18   C     C_2   0.015821 0.342946 0.411739 0.755420
C19   C     C_2   0.984179 0.657054 0.588260 0.755421
C20   C     C_R   0.604184 0.776144 0.962913 0.617428
C21   C     C_R   0.395816 0.223856 0.037087 0.617428
C22   C     C_2   0.567996 0.956436 0.500497 0.336988
C23   C     C_2   0.432004 0.043564 0.499504 0.336988
C24   C     C_R   0.500754 0.502858 0.672349 0.892201
C25   C     C_R   0.499245 0.497142 0.327651 0.892201
C26   C     C_R   0.434458 0.359389 0.185004 -0.128184
F1    F     F_    0.615302 0.752941 0.240794 -0.588193
F2    F     F_    0.384699 0.247058 0.759206 -0.588193
F3    F     F_    0.653371 0.902744 0.103116 -0.521021
F4    F     F_    0.346629 0.097256 0.896883 -0.521021
F5    F     F_    0.640646 0.917161 0.927737 -0.555432
F6    F     F_    0.359354 0.082839 0.072263 -0.555432
F7    F     F_    0.730548 0.016492 0.506979 -0.594834
F8    F     F_    0.269452 0.983508 0.493021 -0.594834
H1    H     H_    0.428689 0.183271 0.289758 0.034614
H2    H     H_    0.571310 0.816729 0.710242 0.034614
H3    H     H_    0.147720 0.321427 0.400146 0.057122
H4    H     H_    0.852280 0.678573 0.599854 0.057122
N1    N     N_2   0.950330 0.457950 0.475660 -0.199914
N2    N     N_2   0.049670 0.542050 0.524340 -0.199914
O1    O     O_R   0.389250 0.738570 0.505970 -0.552176
O2    O     O_2   0.782466 0.829773 0.774302 -0.450128
O3    O     O_2   0.917813 0.263650 0.367027 -0.479828
O4    O     O_2   0.082187 0.736351 0.632972 -0.479829
O5    O     O_R   0.610750 0.261430 0.494030 -0.552176
O6    O     O_R   0.678390 0.711620 0.490370 -0.621525
O7    O     O_R   0.321610 0.288380 0.509630 -0.621526
O8    O     O_R   0.355420 0.513510 0.639950 -0.561637
O9    O     O_R   0.644580 0.486490 0.360050 -0.561637
O10   O     O_R   0.644560 0.486560 0.624350 -0.671835
O11   O     O_R   0.355440 0.513440 0.375650 -0.671835
O12   O     O_2   0.217533 0.170227 0.225697 -0.450128
Zn1   Zn    Zn3+2 0.306940 0.517990 0.510420 1.059869
Zn2   Zn    Zn3+2 0.693060 0.482010 0.489580 1.059869

loop_
_geom_bond_atom_site_label_1
_geom_bond_atom_site_label_2
_ccdc_geom_bond_type
C2    C4    A    
C18   N1    S    
C25   O11   A    
C19   H4    S    
C3    C26   A    
C9    C10   A    
C11   C26   A    
C15   C21   A    
O7    Zn1   S    
C23   F8    S    
O6    Zn2   S    
C1    C22   S    
C10   C13   A    
C18   O3    D    
C2    C17   S    
C16   C26   S    
C9    C11   A    
C12   C23   S    
O1    Zn1   S    
O10   Zn2   S    
C12   O7    A    
C4    C6    A    
C17   H2    S    
C18   H3    S    
O5    Zn2   S    
C8    C15   A    
C5    C7    A    
C22   C23   D    
C16   H1    S    
C24   O10   A    
O8    Zn1   S    
C4    C24   S    
C21   F6    S    
C25   O9    A    
C1    O6    A    
N1    Zn2   S    
C19   N2    S    
C14   F3    S    
O9    Zn2   S    
C24   O8    A    
C14   C20   A    
C3    C25   S    
C2    C13   A    
C19   O4    D    
C15   F4    S    
C8    C10   A    
N2    Zn1   S    
C1    O1    A    
N1    N2    D    
C7    C9    A    
C22   F7    S    
C17   O2    D    
C6    C8    A    
C13   C20   A    
C3    C5    A    
C5    F1    S    
C11   C21   A    
C7    C14   A    
C6    F2    S    
C16   O12   D    
C12   O5    A    
O11   Zn1   S    
C20   F5    S    
