data_str_m2_o14_o14_f0_pcu.sym.77
_audit_creation_date              2012-12-10T17:17:55-0500
_audit_creation_method            fapswitch 2.2
_symmetry_space_group_name_H-M    P1
_symmetry_Int_Tables_number       1
_space_group_crystal_system       triclinic
_cell_length_a                    15.083642
_cell_length_b                    15.449067
_cell_length_c                    9.614183
_cell_angle_alpha                 90.084997
_cell_angle_beta                  89.879078
_cell_angle_gamma                 89.904612
_cell_volume                      2240.365148

loop_
_atom_site_label
_atom_site_type_symbol
_atom_type_description
_atom_site_fract_x
_atom_site_fract_y
_atom_site_fract_z
_atom_type_partial_charge
C1    C     C_R   0.376636 0.886189 0.500094 0.875068
C2    C     C_R   0.742203 0.194805 0.404219 -0.233663
C3    C     C_R   0.269575 0.332509 0.519475 -0.230324
C4    C     C_R   0.242202 0.694806 0.404218 -0.233662
C5    C     C_R   0.680968 0.809859 0.500378 -0.071802
C6    C     C_R   0.673076 0.197208 0.500904 -0.090010
C7    C     C_R   0.180969 0.309859 0.500378 -0.071802
C8    C     C_R   0.173076 0.697209 0.500904 -0.090010
C9    C     C_R   0.663220 0.997898 0.143103 -0.176852
C10   C     C_R   0.163220 0.497898 0.143103 -0.176852
C11   C     C_R   0.743014 0.995298 0.070935 0.153828
C12   C     C_R   0.382140 0.119285 0.499853 0.812079
C13   C     C_R   0.243014 0.495298 0.070935 0.153827
C14   C     C_R   0.742949 0.995956 0.927620 -0.209929
C15   C     C_R   0.242949 0.495956 0.927620 -0.209929
C16   C     C_R   0.663298 0.998531 0.855869 -0.171054
C17   C     C_R   0.163298 0.498531 0.855869 -0.171053
C18   C     C_R   0.580216 0.999213 0.925000 0.221872
C19   C     C_R   0.080216 0.499213 0.925000 0.221872
C20   C     C_R   0.580181 0.999103 0.074433 0.179927
C21   C     C_R   0.080181 0.499103 0.074433 0.179926
C22   C     C_R   0.423806 0.000994 0.074133 -0.038688
C23   C     C_R   0.876636 0.386189 0.500094 0.875069
C24   C     C_R   0.923805 0.500994 0.074133 -0.038689
C25   C     C_R   0.613564 0.123217 0.500376 0.843582
C26   C     C_R   0.617253 0.879985 0.499969 0.888996
C27   C     C_R   0.113564 0.623218 0.500376 0.843581
C28   C     C_R   0.117253 0.379985 0.499969 0.888995
C29   C     C_R   0.423858 0.001066 0.926409 -0.018390
C30   C     C_R   0.923858 0.501066 0.926408 -0.018388
C31   C     C_R   0.199997 0.071151 0.448712 -0.201974
C32   C     C_R   0.220714 0.906928 0.680497 -0.198298
C33   C     C_R   0.699998 0.571152 0.448703 -0.201975
C34   C     C_R   0.882140 0.619285 0.499853 0.812076
C35   C     C_R   0.720713 0.406929 0.680494 -0.198297
C36   C     C_R   0.111690 0.047077 0.433245 -0.197523
C37   C     C_R   0.148321 0.915450 0.768957 -0.223309
C38   C     C_R   0.611691 0.547078 0.433231 -0.197524
C39   C     C_R   0.648320 0.415452 0.768953 -0.223309
C40   C     C_R   0.545160 0.609003 0.444148 -0.165645
C41   C     C_R   0.582828 0.352734 0.770017 -0.176998
C42   C     C_R   0.045159 0.109002 0.444163 -0.165646
C43   C     C_R   0.082830 0.852732 0.770022 -0.176999
C44   C     C_R   0.566544 0.695640 0.467493 0.568789
C45   C     C_R   0.334597 0.269412 0.519009 -0.110887
C46   C     C_R   0.588959 0.280799 0.682831 0.566914
C47   C     C_R   0.066543 0.195640 0.467505 0.568789
C48   C     C_R   0.088960 0.780798 0.682835 0.566913
C49   C     C_R   0.655955 0.722130 0.480542 -0.001828
C50   C     C_R   0.663547 0.268958 0.593535 -0.012099
C51   C     C_R   0.155955 0.222130 0.480548 -0.001827
C52   C     C_R   0.163548 0.768957 0.593537 -0.012100
C53   C     C_R   0.223177 0.158189 0.475418 0.009300
C54   C     C_R   0.230291 0.833803 0.592799 0.007627
C55   C     C_R   0.723178 0.658189 0.475413 0.009301
C56   C     C_R   0.305799 0.758469 0.402857 -0.105958
C57   C     C_R   0.730291 0.333804 0.592797 0.007627
C58   C     C_R   0.311943 0.182878 0.498397 -0.054809
C59   C     C_R   0.302935 0.825603 0.499859 -0.069488
C60   C     C_R   0.811943 0.682878 0.498398 -0.054810
C61   C     C_R   0.802935 0.325603 0.499859 -0.069486
C62   C     C_R   0.834596 0.769412 0.519015 -0.110890
C63   C     C_R   0.805800 0.258468 0.402859 -0.105957
C64   C     C_R   0.769574 0.832509 0.519481 -0.230323
Cu1   Cu    Cu3+1 0.499990 0.000000 0.640660 1.001525
Cu2   Cu    Cu3+1 0.999990 0.500000 0.640660 1.001527
Cu3   Cu    Cu3+1 0.500010 0.000000 0.359340 0.967584
Cu4   Cu    Cu3+1 0.000010 0.500000 0.359340 0.967582
F1    F     F_    0.499009 0.752137 0.481685 -0.708274
F2    F     F_    0.518747 0.226722 0.683596 -0.685198
F3    F     F_    0.999008 0.252136 0.481698 -0.708273
F4    F     F_    0.018748 0.726721 0.683600 -0.685197
H1    H     H_    0.402997 0.288538 0.532347 0.185457
H2    H     H_    0.861331 0.502161 0.871817 0.124967
H3    H     H_    0.249744 0.021060 0.439782 0.123994
H4    H     H_    0.266884 0.960104 0.678781 0.151548
H5    H     H_    0.749745 0.521060 0.439775 0.123995
H6    H     H_    0.766884 0.460105 0.678778 0.151546
H7    H     H_    0.094801 0.979994 0.414340 0.179520
H8    H     H_    0.142029 0.972060 0.834783 0.173942
H9    H     H_    0.594802 0.479995 0.414324 0.179521
H10   H     H_    0.642027 0.472062 0.834778 0.173941
H11   H     H_    0.476428 0.589811 0.434888 0.180593
H12   H     H_    0.359488 0.753376 0.328195 0.202324
H13   H     H_    0.525537 0.360862 0.836876 0.179969
H14   H     H_    0.976427 0.089811 0.434907 0.180590
H15   H     H_    0.025540 0.860860 0.836882 0.179969
H16   H     H_    0.788455 0.899599 0.534214 0.137926
H17   H     H_    0.748678 0.141641 0.331324 0.174883
H18   H     H_    0.288456 0.399600 0.534203 0.137928
H19   H     H_    0.248677 0.641643 0.331322 0.174884
H20   H     H_    0.361241 0.001801 0.129362 0.136954
H21   H     H_    0.861241 0.501801 0.129362 0.136954
H22   H     H_    0.670874 0.998932 0.252447 0.203739
H23   H     H_    0.902997 0.788537 0.532358 0.185458
H24   H     H_    0.170874 0.498932 0.252447 0.203739
H25   H     H_    0.859490 0.253375 0.328197 0.202321
H26   H     H_    0.805068 0.994571 0.870928 0.174791
H27   H     H_    0.305068 0.494571 0.870928 0.174791
H28   H     H_    0.671442 0.999798 0.746428 0.195655
H29   H     H_    0.171442 0.499798 0.746428 0.195655
H30   H     H_    0.361331 0.002161 0.871817 0.124967
I1    I     I_    0.864464 0.989785 0.179712 -0.475633
I2    I     I_    0.364464 0.489785 0.179712 -0.475638
N1    N     N_R   0.501200 0.000000 0.147910 -0.195838
N2    N     N_R   0.001200 0.500000 0.147910 -0.195838
N3    N     N_R   0.501270 0.000000 0.852040 -0.187693
N4    N     N_R   0.001270 0.500000 0.852040 -0.187693
O1    O     O_R   0.409820 0.909830 0.618810 -0.569166
O2    O     O_R   0.590170 0.909830 0.618760 -0.591574
O3    O     O_R   0.090170 0.590170 0.618760 -0.549870
O4    O     O_R   0.090170 0.409830 0.618760 -0.591572
O5    O     O_R   0.590190 0.090180 0.381190 -0.614259
O6    O     O_R   0.590190 0.909820 0.381190 -0.580301
O7    O     O_R   0.090190 0.590180 0.381190 -0.614259
O8    O     O_R   0.090190 0.409820 0.381190 -0.580304
O9    O     O_R   0.409820 0.090170 0.618810 -0.538357
O10   O     O_R   0.909820 0.409830 0.618810 -0.569162
O11   O     O_R   0.909820 0.590170 0.618810 -0.538358
O12   O     O_R   0.409840 0.909830 0.381240 -0.575641
O13   O     O_R   0.409840 0.090170 0.381240 -0.592010
O14   O     O_R   0.909840 0.409830 0.381240 -0.575645
O15   O     O_R   0.909840 0.590170 0.381240 -0.592010
O16   O     O_R   0.590170 0.090170 0.618760 -0.549871

loop_
_geom_bond_atom_site_label_1
_geom_bond_atom_site_label_2
_ccdc_geom_bond_type
C44   C49   A    
C33   C55   A    
Cu2   Cu4   S    
C34   O15   A    
C22   C29   A    
C36   C42   A    
C4    C8    A    
C23   O10   A    
C39   C41   A    
C28   O4    A    
C3    H18   S    
C60   C62   A    
C19   C21   A    
Cu3   O6    S    
C3    C7    A    
C1    C59   S    
C30   H2    S    
C11   C14   A    
C6    C25   S    
C45   H1    S    
Cu1   O16   S    
C61   C63   A    
C17   H29   S    
C18   N3    A    
C62   C64   A    
C28   O8    A    
C1    O1    A    
C12   O13   A    
Cu1   Cu3   S    
C41   C46   A    
C10   C13   A    
C56   H12   S    
C42   H14   S    
Cu2   O3    S    
Cu3   O12   S    
C8    C52   A    
C40   C44   A    
C21   N2    A    
C4    H19   S    
C12   C58   S    
C19   N4    A    
C27   O3    A    
C55   C60   A    
C4    C56   A    
C34   C60   S    
C40   H11   S    
C5    C49   A    
C2    C6    A    
Cu4   N2    S    
C48   F4    S    
Cu3   O13   S    
Cu4   O15   S    
C32   C54   A    
C52   C54   A    
C14   H26   S    
C23   O14   A    
C54   C59   A    
C10   C21   A    
C37   H8    S    
C45   C58   A    
Cu4   O14   S    
Cu3   N1    S    
C47   C51   A    
C49   C55   A    
C3    C45   A    
C6    C50   A    
C7    C28   S    
C5    C26   S    
C5    C64   A    
C51   C53   A    
C1    O12   A    
C37   C43   A    
C2    H17   S    
C35   C39   A    
C26   O6    A    
C25   O5    A    
C9    C20   A    
C31   H3    S    
C10   H24   S    
Cu2   N4    S    
C47   F3    S    
C44   F1    S    
C32   C37   A    
C31   C53   A    
C13   I2    S    
C9    C11   A    
Cu1   O1    S    
Cu4   O8    S    
Cu2   O11   S    
C13   C15   A    
C38   H9    S    
C14   C16   A    
C24   N2    A    
C2    C63   A    
C20   N1    A    
C43   C48   A    
C23   C61   S    
C34   O11   A    
C15   C17   A    
C26   O2    A    
C22   H20   S    
C30   N4    A    
C50   C57   A    
C16   H28   S    
C39   H10   S    
C15   H27   S    
C36   H7    S    
C32   H4    S    
C53   C58   A    
C57   C61   A    
C22   N1    A    
C41   H13   S    
C46   C50   A    
C35   H6    S    
C33   C38   A    
C56   C59   A    
C35   C57   A    
C43   H15   S    
Cu3   O5    S    
C7    C51   A    
C63   H25   S    
C24   H21   S    
C38   C40   A    
C33   H5    S    
C17   C19   A    
C64   H16   S    
C29   H30   S    
C18   C20   A    
C42   C47   A    
C25   O16   A    
C24   C30   A    
Cu1   O2    S    
C46   F2    S    
Cu4   O7    S    
C12   O9    A    
C48   C52   A    
C16   C18   A    
Cu2   O10   S    
C8    C27   S    
Cu1   O9    S    
C31   C36   A    
C29   N3    A    
C11   I1    S    
Cu2   O4    S    
C62   H23   S    
C9    H22   S    
Cu1   N3    S    
C27   O7    A    
