data_str_m4_o1_o4_f0_acs.sym.137
_audit_creation_date              2012-12-11T14:54:24-0500
_audit_creation_method            fapswitch 2.2
_symmetry_space_group_name_H-M    P1
_symmetry_Int_Tables_number       1
_space_group_crystal_system       triclinic
_cell_length_a                    18.953923
_cell_length_b                    10.915857
_cell_length_c                    18.787807
_cell_angle_alpha                 89.978608
_cell_angle_beta                  89.783518
_cell_angle_gamma                 89.754418
_cell_volume                      3887.10187389

loop_
_atom_site_label
_atom_site_type_symbol
_atom_type_description
_atom_site_fract_x
_atom_site_fract_y
_atom_site_fract_z
_atom_type_partial_charge
C1    C     C_R   0.728745 0.374772 0.644622 0.558336
C2    C     C_R   0.268888 0.378084 0.353377 0.532701
C3    C     C_R   0.228746 0.874772 0.644622 0.558336
C4    C     C_R   0.768887 0.878084 0.353377 0.532701
C5    C     C_3   0.441305 0.344609 0.478120 -0.232147
C6    C     C_3   0.466013 0.345146 0.554841 -0.256548
C7    C     C_3   0.941305 0.844609 0.478120 -0.232147
C8    C     C_3   0.966013 0.845146 0.554841 -0.256548
C9    C     C_R   0.706429 0.856300 0.539825 -0.165418
C10   C     C_R   0.307823 0.887251 0.462904 -0.111587
C11   C     C_R   0.206429 0.356300 0.539825 -0.165417
C12   C     C_R   0.807823 0.387251 0.462904 -0.111587
C13   C     C_R   0.705425 0.843214 0.466401 -0.142937
C14   C     C_R   0.303708 0.879738 0.536506 -0.111148
C15   C     C_R   0.205425 0.343214 0.466401 -0.142937
C16   C     C_R   0.803708 0.379738 0.536506 -0.111148
C17   C     C_R   0.748269 0.918103 0.423885 -0.015843
C18   C     C_R   0.239491 0.901899 0.570071 -0.011850
C19   C     C_R   0.248269 0.418103 0.423885 -0.015843
C20   C     C_R   0.739491 0.401899 0.570071 -0.011850
C21   C     C_R   0.788949 0.009248 0.454516 -0.111620
C22   C     C_R   0.179281 0.930577 0.529895 -0.105374
C23   C     C_R   0.288949 0.509248 0.454516 -0.111620
C24   C     C_R   0.679281 0.430577 0.529895 -0.105374
C25   C     C_R   0.798517 0.011954 0.527416 0.006509
C26   C     C_R   0.181803 0.934278 0.456733 -0.004838
C27   C     C_R   0.298517 0.511954 0.527416 0.006509
C28   C     C_R   0.681803 0.434278 0.456733 -0.004838
C29   C     C_R   0.752470 0.940127 0.571288 -0.016076
C30   C     C_R   0.247546 0.917712 0.422720 -0.022827
C31   C     C_R   0.252470 0.440127 0.571288 -0.016076
C32   C     C_R   0.747546 0.417712 0.422720 -0.022827
C33   C     C_R   0.471046 0.046387 0.950633 0.016114
C34   C     C_R   0.475799 0.045976 0.024848 -0.046442
C35   C     C_R   0.971046 0.546387 0.950633 0.016114
C36   C     C_R   0.975800 0.545976 0.024848 -0.046442
C37   C     C_R   0.460813 0.156679 0.062125 -0.033965
C38   C     C_R   0.482252 0.158800 0.914884 0.020327
C39   C     C_R   0.960813 0.656679 0.062125 -0.033965
C40   C     C_R   0.982252 0.658800 0.914884 0.020327
C41   C     C_R   0.451797 0.265887 0.023323 -0.125636
C42   C     C_R   0.465919 0.267891 0.950281 -0.147182
C43   C     C_R   0.951797 0.765887 0.023323 -0.125636
C44   C     C_R   0.965919 0.767891 0.950281 -0.147182
C45   C     C_R   0.564675 0.150483 0.639116 0.558367
C46   C     C_R   0.468670 0.154715 0.353270 0.543960
C47   C     C_R   0.064675 0.650483 0.639116 0.558367
C48   C     C_R   0.968670 0.654714 0.353270 0.543960
C49   C     C_R   0.785470 0.046811 0.976152 -0.109423
C50   C     C_R   0.176129 0.918428 0.052259 -0.089832
C51   C     C_R   0.285470 0.546811 0.976152 -0.109423
C52   C     C_R   0.676129 0.418428 0.052259 -0.089832
C53   C     C_R   0.791275 0.028181 0.048722 -0.006705
C54   C     C_R   0.164136 0.904523 0.979942 -0.004831
C55   C     C_R   0.291275 0.528181 0.048722 -0.006705
C56   C     C_R   0.664136 0.404523 0.979942 -0.004830
C57   C     C_R   0.747411 0.939465 0.081807 -0.020968
C58   C     C_R   0.220518 0.860320 0.936152 -0.014162
C59   C     C_R   0.247411 0.439465 0.081807 -0.020968
C60   C     C_R   0.720518 0.360320 0.936152 -0.014162
C61   C     C_R   0.691933 0.887031 0.043136 -0.149740
C62   C     C_R   0.287493 0.842490 0.965992 -0.130985
C63   C     C_R   0.191933 0.387031 0.043136 -0.149741
C64   C     C_R   0.787493 0.342490 0.965992 -0.130985
C65   C     C_R   0.683181 0.915303 0.971483 -0.130957
C66   C     C_R   0.299598 0.869680 0.036727 -0.139657
C67   C     C_R   0.183181 0.415303 0.971483 -0.130957
C68   C     C_R   0.799598 0.369680 0.036727 -0.139658
C69   C     C_R   0.732164 0.991248 0.937178 -0.007383
C70   C     C_R   0.244001 0.909004 0.079719 -0.020461
C71   C     C_R   0.232164 0.491248 0.937178 -0.007383
C72   C     C_R   0.744001 0.409004 0.079719 -0.020461
C73   C     C_R   0.741759 0.972617 0.645918 0.538636
C74   C     C_R   0.257969 0.966921 0.351768 0.521859
C75   C     C_R   0.241759 0.472617 0.645918 0.538636
C76   C     C_R   0.757969 0.466921 0.351768 0.521859
C77   C     C_R   0.711047 0.333952 0.860362 0.530475
C78   C     C_R   0.269304 0.382610 0.148945 0.521152
C79   C     C_R   0.211047 0.833952 0.860362 0.530475
C80   C     C_R   0.769304 0.882610 0.148945 0.521152
C81   C     C_R   0.526737 0.156578 0.849970 0.557742
C82   C     C_R   0.441173 0.152807 0.138274 0.552446
C83   C     C_R   0.026737 0.656578 0.849970 0.557742
C84   C     C_R   0.941173 0.652807 0.138274 0.552447
C85   C     C_R   0.727708 0.019399 0.861576 0.534576
C86   C     C_R   0.257966 0.967866 0.147089 0.533494
C87   C     C_R   0.227708 0.519399 0.861576 0.534576
C88   C     C_R   0.757966 0.467866 0.147089 0.533494
C89   C     C_R   0.509013 0.162569 0.419025 -0.002642
C90   C     C_R   0.550579 0.157338 0.562905 0.005588
C91   C     C_R   0.009013 0.662569 0.419025 -0.002642
C92   C     C_R   0.050579 0.657338 0.562905 0.005588
C93   C     C_R   0.503856 0.266455 0.461670 0.024441
C94   C     C_R   0.525588 0.264913 0.531755 0.018321
C95   C     C_R   0.003856 0.766455 0.461670 0.024441
C96   C     C_R   0.025588 0.764913 0.531755 0.018321
C97   C     C_R   0.563379 0.055800 0.518722 -0.147337
C98   C     C_R   0.543715 0.058754 0.446897 -0.147239
C99   C     C_R   0.063379 0.555800 0.518722 -0.147337
C100  C     C_R   0.043715 0.558754 0.446897 -0.147239
Cr1   Cr    Cr6+3 0.771950 0.169480 0.750100 1.045584
Cr2   Cr    Cr6+3 0.228050 0.169480 0.249900 1.043827
Cr3   Cr    Cr6+3 0.271950 0.669480 0.750100 1.045584
Cr4   Cr    Cr6+3 0.728050 0.669480 0.249900 1.043827
Cr5   Cr    Cr6+3 0.614930 0.323340 0.749170 1.009211
Cr6   Cr    Cr6+3 0.385070 0.323340 0.250830 1.041143
Cr7   Cr    Cr6+3 0.114930 0.823340 0.749170 1.009211
Cr8   Cr    Cr6+3 0.885070 0.823340 0.250830 1.041143
Cr9   Cr    Cr6+3 0.616590 0.010620 0.750610 1.048380
Cr10  Cr    Cr6+3 0.383410 0.010620 0.249390 1.041890
Cr11  Cr    Cr6+3 0.116590 0.510620 0.750610 1.048380
Cr12  Cr    Cr6+3 0.883410 0.510620 0.249390 1.041890
H1    H     H_    0.657613 0.819432 0.067162 0.171362
H2    H     H_    0.331553 0.812059 0.933963 0.175759
H3    H     H_    0.157613 0.319432 0.067162 0.171362
H4    H     H_    0.831552 0.312059 0.933963 0.175759
H5    H     H_    0.640371 0.873278 0.942450 0.160887
H6    H     H_    0.352834 0.865132 0.056924 0.203769
H7    H     H_    0.140371 0.373278 0.942450 0.160887
H8    H     H_    0.852834 0.365132 0.056924 0.203769
H9    H     H_    0.890634 0.795307 0.470627 0.139447
H10   H     H_    0.985526 0.935725 0.572883 0.166764
H11   H     H_    0.390634 0.295307 0.470627 0.139447
H12   H     H_    0.485526 0.435725 0.572883 0.166764
H13   H     H_    0.444322 0.435471 0.451811 0.219572
H14   H     H_    0.428895 0.298789 0.591991 0.145448
H15   H     H_    0.944322 0.935471 0.451811 0.219572
H16   H     H_    0.928895 0.798789 0.591991 0.145448
H17   H     H_    0.671453 0.800766 0.572074 0.146514
H18   H     H_    0.359104 0.876378 0.437994 0.179390
H19   H     H_    0.171453 0.300766 0.572074 0.146514
H20   H     H_    0.859104 0.376379 0.437994 0.179390
H21   H     H_    0.821791 0.066102 0.420690 0.181996
H22   H     H_    0.128513 0.945200 0.555235 0.178318
H23   H     H_    0.321791 0.566102 0.420690 0.181996
H24   H     H_    0.628513 0.445200 0.555235 0.178318
O1    O     O_R   0.787510 0.042610 0.670410 -0.538435
O2    O     O_R   0.212490 0.042610 0.329590 -0.516621
O3    O     O_R   0.287510 0.542610 0.670410 -0.538435
O4    O     O_R   0.712490 0.542610 0.329590 -0.516621
O5    O     O_R   0.556450 0.252890 0.823790 -0.549090
O6    O     O_R   0.443550 0.252890 0.176210 -0.492363
O7    O     O_R   0.056450 0.752890 0.823790 -0.549089
O8    O     O_R   0.943550 0.752890 0.176210 -0.492364
O9    O     O_R   0.545750 0.051070 0.830560 -0.484229
O10   O     O_R   0.454250 0.051070 0.169440 -0.515459
O11   O     O_R   0.045750 0.551070 0.830560 -0.484229
O12   O     O_R   0.954250 0.551070 0.169440 -0.515459
O13   O     O_R   0.681210 0.959150 0.825320 -0.491281
O14   O     O_R   0.318790 0.959150 0.174680 -0.511469
O15   O     O_R   0.181210 0.459150 0.825320 -0.491281
O16   O     O_R   0.818790 0.459150 0.174680 -0.511469
O17   O     O_3   0.667820 0.167810 0.749960 -0.315728
O18   O     O_3   0.332180 0.167810 0.250040 -0.263402
O19   O     O_3   0.167820 0.667810 0.749960 -0.315728
O20   O     O_3   0.832180 0.667810 0.250040 -0.263402
O21   O     O_R   0.765670 0.292090 0.675090 -0.484699
O22   O     O_R   0.234330 0.292090 0.324910 -0.496803
O23   O     O_R   0.265670 0.792090 0.675090 -0.484699
O24   O     O_R   0.734330 0.792090 0.324910 -0.496803
O25   O     O_R   0.670220 0.409020 0.668560 -0.525751
O26   O     O_R   0.329780 0.409020 0.331440 -0.526649
O27   O     O_R   0.170220 0.909020 0.668560 -0.525751
O28   O     O_R   0.829780 0.909020 0.331440 -0.526649
O29   O     O_R   0.556580 0.251590 0.674980 -0.500948
O30   O     O_R   0.443420 0.251590 0.325020 -0.493358
O31   O     O_R   0.056580 0.751590 0.674980 -0.500948
O32   O     O_R   0.943420 0.751590 0.325020 -0.493358
O33   O     O_R   0.545890 0.049670 0.670030 -0.491815
O34   O     O_R   0.454110 0.049670 0.329970 -0.515516
O35   O     O_R   0.045890 0.549670 0.670030 -0.491815
O36   O     O_R   0.954110 0.549670 0.329970 -0.515516
O37   O     O_R   0.681340 0.957860 0.676500 -0.506739
O38   O     O_R   0.318660 0.957860 0.323500 -0.504491
O39   O     O_R   0.181340 0.457860 0.676500 -0.506739
O40   O     O_R   0.818660 0.457860 0.323500 -0.504491
O41   O     O_R   0.787380 0.044010 0.830940 -0.510281
O42   O     O_R   0.212620 0.044010 0.169060 -0.511563
O43   O     O_R   0.287380 0.544010 0.830940 -0.510281
O44   O     O_R   0.712620 0.544010 0.169060 -0.511563
O45   O     O_R   0.765540 0.293390 0.823910 -0.475113
O46   O     O_R   0.234460 0.293390 0.176090 -0.495328
O47   O     O_R   0.265540 0.793390 0.823910 -0.475113
O48   O     O_R   0.734460 0.793390 0.176090 -0.495328
O49   O     O_R   0.670090 0.410410 0.829090 -0.514965
O50   O     O_R   0.329910 0.410410 0.170910 -0.530053
O51   O     O_R   0.170090 0.910410 0.829090 -0.514965
O52   O     O_R   0.829910 0.910410 0.170910 -0.530053
H25   H     H_    0.583761 0.971688 0.540889 0.147595
H26   H     H_    0.549888 0.976353 0.415341 0.153109
H27   H     H_    0.083761 0.471688 0.540889 0.147595
H28   H     H_    0.049888 0.476353 0.415341 0.153109
H29   H     H_    0.822939 0.105853 0.949730 0.166823
H30   H     H_    0.133298 0.948472 0.086583 0.191237
H31   H     H_    0.322939 0.605852 0.949730 0.166823
H32   H     H_    0.633298 0.448472 0.086583 0.191237
C101  C     C_2   0.844840 0.100681 0.087550 0.246009
H33   H     H_    0.835087 0.129449 0.142012 0.123232
O53   O     O_2   0.900571 0.128193 0.059106 -0.446322
C102  C     C_2   0.094402 0.947936 0.953319 0.218583
H34   H     H_    0.075377 0.926074 0.901250 0.159924
O54   O     O_2   0.056287 0.012671 0.990235 -0.481883
C103  C     C_2   0.344840 0.600681 0.087550 0.246009
H35   H     H_    0.335087 0.629449 0.142012 0.123232
O55   O     O_2   0.400571 0.628193 0.059106 -0.446323
C104  C     C_2   0.594402 0.447936 0.953319 0.218583
H36   H     H_    0.575377 0.426074 0.901250 0.159924
O56   O     O_2   0.556287 0.512671 0.990235 -0.481883
H37   H     H_    0.673733 0.771150 0.443338 0.175852
H38   H     H_    0.350339 0.858192 0.567242 0.177777
H39   H     H_    0.173734 0.271150 0.443338 0.175852
H40   H     H_    0.850339 0.358192 0.567242 0.177777
C105  C     C_2   0.861844 0.080380 0.553232 0.220814
H41   H     H_    0.885674 0.061302 0.604231 0.149114
O57   O     O_2   0.892694 0.152941 0.514786 -0.544735
C106  C     C_2   0.115485 0.959904 0.417575 0.243483
H42   H     H_    0.106817 0.919616 0.365536 0.122606
O58   O     O_2   0.070748 0.028563 0.442471 -0.521073
C107  C     C_2   0.361844 0.580380 0.553232 0.220814
H43   H     H_    0.385674 0.561302 0.604231 0.149114
O59   O     O_2   0.392694 0.652941 0.514786 -0.544735
C108  C     C_2   0.615485 0.459904 0.417575 0.243483
H44   H     H_    0.606817 0.419616 0.365536 0.122606
O60   O     O_2   0.570748 0.528563 0.442471 -0.521073
C109  C     C_2   0.455070 0.931996 0.910414 0.257676
H45   H     H_    0.470647 0.842488 0.929309 0.172977
O61   O     O_2   0.422347 0.937447 0.854584 -0.483649
C110  C     C_2   0.508988 0.939218 0.061348 0.219610
H46   H     H_    0.550728 0.955437 0.099545 0.131584
O62   O     O_2   0.489495 0.834391 0.051576 -0.482551
C111  C     C_2   0.955070 0.431995 0.910414 0.257677
H47   H     H_    0.970649 0.342488 0.929309 0.172977
O63   O     O_2   0.922347 0.437447 0.854584 -0.483649
C112  C     C_2   0.008988 0.439217 0.061348 0.219610
H48   H     H_    0.050728 0.455437 0.099545 0.131584
O64   O     O_2   0.989495 0.334391 0.051576 -0.482551
H49   H     H_    0.436933 0.350259 0.049848 0.196975
H50   H     H_    0.464678 0.353812 0.921736 0.156837
H51   H     H_    0.936933 0.850259 0.049848 0.196975
H52   H     H_    0.964678 0.853812 0.921736 0.156837

loop_
_geom_bond_atom_site_label_1
_geom_bond_atom_site_label_2
_ccdc_geom_bond_type
C58   C62   A    
Cr5   O17   S    
C103  H35   S    
C49   C53   A    
C27   C107  S    
C93   C94   A    
C64   H4    S    
C55   C59   A    
C67   H7    S    
C34   C37   A    
C77   O49   A    
C41   C42   A    
C14   C18   A    
C34   C110  S    
C95   C96   A    
C8    C96   S    
C86   O42   A    
C82   O6    A    
C8    H10   S    
Cr2   O22   S    
C110  O62   D    
C97   C98   A    
C42   H50   S    
C22   C26   A    
C7    C8    S    
C46   C89   S    
C41   H49   S    
C105  H41   S    
C15   C19   A    
Cr8   O28   S    
C50   C54   A    
C79   O51   A    
C22   H22   S    
Cr11  O39   S    
C64   C68   A    
C106  O58   D    
C39   C84   S    
C62   H2    S    
Cr11  O11   S    
C86   O14   A    
Cr5   O5    S    
C5    C6    S    
C30   C74   S    
Cr9   O37   S    
C103  O55   D    
C29   C73   S    
C84   O8    A    
C36   C112  S    
C80   O48   A    
Cr7   O51   S    
C92   C96   A    
C54   C102  S    
C51   H31   S    
C3    C18   S    
C26   C106  S    
C51   C55   A    
Cr2   O2    S    
Cr5   O49   S    
Cr8   O20   S    
C101  O53   D    
C9    C13   A    
C15   H39   S    
C82   O10   A    
C48   O36   A    
C11   C15   A    
C8    H16   S    
C12   C16   A    
Cr5   O29   S    
C102  H34   S    
C6    C94   S    
C48   C91   S    
C52   H32   S    
C47   O31   A    
C77   O45   A    
C4    O28   A    
C88   O44   A    
C78   O50   A    
C23   C27   A    
C91   C100  A    
C101  H33   S    
Cr9   O17   S    
Cr2   O18   S    
C90   C97   A    
Cr3   O43   S    
C9    C29   A    
C63   H3    S    
C5    C93   S    
C24   H24   S    
C97   H25   S    
Cr8   O32   S    
C11   C31   A    
C49   C69   A    
C12   C32   A    
C89   C93   A    
C88   O16   A    
C57   C80   S    
C40   C83   S    
C100  H28   S    
C4    O24   A    
C112  O64   D    
Cr4   O24   S    
C47   C92   S    
C46   O30   A    
C44   H52   S    
C59   C78   S    
C21   H21   S    
C110  H46   S    
C72   C88   S    
Cr9   O33   S    
C90   C94   A    
Cr7   O31   S    
C84   O12   A    
C25   C29   A    
C63   C67   A    
C60   C77   S    
C14   H38   S    
C27   C31   A    
Cr2   O46   S    
C13   H37   S    
C28   C32   A    
C76   O40   A    
C106  H42   S    
Cr6   O50   S    
C53   C57   A    
Cr5   O25   S    
C10   C14   A    
C66   H6    S    
C107  H43   S    
C62   C66   A    
C104  H36   S    
C39   C43   A    
Cr6   O6    S    
Cr6   O18   S    
Cr1   O17   S    
C75   O39   A    
C17   C21   A    
Cr12  O12   S    
Cr11  O15   S    
C68   C72   A    
C78   O46   A    
C35   C36   A    
Cr4   O44   S    
Cr9   O13   S    
C43   C44   A    
C10   H18   S    
Cr10  O18   S    
Cr3   O3    S    
C107  O59   D    
C74   O2    A    
C7    H9    S    
C31   C75   S    
C99   C100  A    
C48   O32   A    
C16   H40   S    
C16   C20   A    
C55   C103  S    
C52   C72   A    
C83   O7    A    
Cr12  O16   S    
C33   C34   A    
C80   O52   A    
C56   C104  S    
C1    O21   A    
C111  O63   D    
Cr4   O20   S    
C108  O60   D    
C45   C90   S    
C6    H14   S    
C49   H29   S    
C71   C87   S    
C43   H51   S    
C58   C79   S    
C74   O38   A    
C83   O11   A    
C4    C17   S    
Cr10  O34   S    
C85   O41   A    
Cr12  O40   S    
C87   O43   A    
Cr7   O27   S    
C26   C30   A    
C81   O9    A    
C1    O25   A    
C38   C81   S    
C61   H1    S    
Cr2   O42   S    
Cr3   O47   S    
C10   C30   A    
Cr11  O35   S    
Cr11  O19   S    
C112  H48   S    
C76   O4    A    
Cr7   O7    S    
C70   C86   S    
Cr6   O30   S    
Cr8   O8    S    
C69   C85   S    
C19   C23   A    
C54   C58   A    
Cr3   O19   S    
C21   C25   A    
C6    H12   S    
C1    C20   S    
Cr1   O1    S    
C12   H20   S    
C109  H45   S    
C2    C19   S    
C18   C22   A    
C59   C63   A    
Cr8   O52   S    
C36   C39   A    
Cr9   O9    S    
C24   C28   A    
C98   H26   S    
Cr10  O14   S    
C45   O33   A    
C32   C76   S    
C47   O35   A    
C51   C71   A    
C57   C61   A    
C3    O27   A    
C35   C111  S    
C7    C95   S    
C5    H11   S    
C33   C109  S    
C33   C38   A    
C73   O37   A    
C23   H23   S    
C89   C98   A    
C60   C64   A    
C53   C101  S    
C25   C105  S    
C35   C40   A    
C50   C70   A    
C105  O57   D    
C11   H19   S    
C75   O3    A    
C68   H8    S    
C99   H27   S    
C50   H30   S    
Cr3   O23   S    
C66   C70   A    
Cr10  O38   S    
C73   O1    A    
C65   C69   A    
C81   O5    A    
C109  O61   D    
C79   O47   A    
C67   C71   A    
Cr6   O26   S    
C61   C65   A    
C37   C41   A    
C108  H44   S    
C37   C82   S    
Cr1   O45   S    
C85   O13   A    
C9    H17   S    
Cr1   O41   S    
C3    O23   A    
Cr1   O21   S    
C13   C17   A    
C38   C42   A    
C46   O34   A    
C40   C44   A    
C56   C60   A    
C2    O22   A    
C91   C95   A    
C28   C108  S    
Cr12  O20   S    
C5    H13   S    
C111  H47   S    
C65   H5    S    
Cr4   O48   S    
C87   O15   A    
C7    H15   S    
Cr10  O10   S    
C104  O56   D    
C45   O29   A    
C20   C24   A    
C102  O54   D    
Cr7   O19   S    
C52   C56   A    
C92   C99   A    
Cr4   O4    S    
C2    O26   A    
Cr12  O36   S    
