data_str_m4_o22_o24_f0_acs.sym.77
_audit_creation_date              2012-12-11T15:08:56-0500
_audit_creation_method            fapswitch 2.2
_symmetry_space_group_name_H-M    P1
_symmetry_Int_Tables_number       1
_space_group_crystal_system       triclinic
_cell_length_a                    19.649857
_cell_length_b                    11.432824
_cell_length_c                    18.668526
_cell_angle_alpha                 90.129227
_cell_angle_beta                  91.634489
_cell_angle_gamma                 89.899935
_cell_volume                      4192.2240263

loop_
_atom_site_label
_atom_site_type_symbol
_atom_type_description
_atom_site_fract_x
_atom_site_fract_y
_atom_site_fract_z
_atom_type_partial_charge
C1    C     C_R   0.273435 0.041532 0.854398 0.540338
C2    C     C_R   0.726296 0.039819 0.144879 0.533763
C3    C     C_R   0.773199 0.541338 0.854754 0.537663
C4    C     C_R   0.227369 0.542376 0.145939 0.543040
C5    C     C_3   0.516426 0.728353 0.960707 -0.125030
C6    C     C_3   0.486732 0.720442 0.034525 -0.123650
C7    C     C_3   0.058078 0.303148 0.972697 -0.141819
C8    C     C_3   0.019224 0.220457 0.021848 -0.110043
C9    C     C_3   0.312739 0.519159 0.044570 -0.099650
C10   C     C_3   0.693883 0.503730 0.959180 -0.097415
C11   C     C_3   0.812923 0.017250 0.044499 -0.094606
C12   C     C_3   0.187120 0.025562 0.953885 -0.099940
C13   C     C_3   0.322593 0.553280 0.964296 -0.246498
C14   C     C_3   0.690759 0.515836 0.042743 -0.253287
C15   C     C_3   0.815558 0.022366 0.960952 -0.239022
C16   C     C_3   0.177054 0.060269 0.033680 -0.250212
C17   C     C_3   0.183331 0.524504 0.023226 -0.212924
C18   C     C_3   0.822406 0.530317 0.975211 -0.208943
C19   C     C_3   0.680643 0.012817 0.022279 -0.203766
C20   C     C_3   0.319066 0.021538 0.977716 -0.204317
C21   C     C_3   0.245110 0.704437 0.057430 -0.266249
C22   C     C_3   0.750415 0.699520 0.945158 -0.252243
C23   C     C_3   0.739578 0.196002 0.054718 -0.256759
C24   C     C_3   0.260298 0.204023 0.942682 -0.263102
C25   C     C_3   0.243971 0.572831 0.070744 0.062536
C26   C     C_3   0.758096 0.569364 0.931004 0.059806
C27   C     C_3   0.741406 0.066267 0.068937 0.069491
C28   C     C_3   0.258563 0.072536 0.929547 0.063397
C29   C     C_3   0.256612 0.609066 0.931654 0.063501
C30   C     C_3   0.745903 0.603352 0.070452 0.069649
C31   C     C_3   0.755260 0.097503 0.929578 0.065817
C32   C     C_3   0.243357 0.110962 0.067543 0.060536
C33   C     C_3   0.198431 0.521079 0.942570 -0.106451
C34   C     C_3   0.816129 0.547776 0.056775 -0.086162
C35   C     C_3   0.691330 0.021950 0.939699 -0.102698
C36   C     C_3   0.300654 0.020476 0.058311 -0.104796
C37   C     C_3   0.242473 0.722758 0.975373 -0.227556
C38   C     C_3   0.734702 0.714847 0.025190 -0.216539
C39   C     C_3   0.748775 0.211582 0.974371 -0.222359
C40   C     C_3   0.260241 0.222963 0.024248 -0.230296
C41   C     C_3   0.498737 0.701095 0.459496 -0.236287
C42   C     C_3   0.501649 0.700983 0.540320 -0.236971
C43   C     C_3   0.998741 0.201091 0.459499 -0.235930
C44   C     C_3   0.001650 0.200979 0.540323 -0.236817
C45   C     C_R   0.440092 0.816686 0.861675 0.539381
C46   C     C_R   0.558529 0.816440 0.137736 0.537979
C47   C     C_R   0.969998 0.321439 0.854546 0.528229
C48   C     C_R   0.028365 0.320688 0.146657 0.527902
C49   C     C_3   0.568464 0.886865 0.477560 -0.232640
C50   C     C_3   0.431577 0.886456 0.522710 -0.232795
C51   C     C_3   0.068470 0.386857 0.477567 -0.231431
C52   C     C_3   0.931581 0.386457 0.522713 -0.231720
C53   C     C_3   0.448253 0.899885 0.442812 -0.252999
C54   C     C_3   0.551828 0.899697 0.557562 -0.252452
C55   C     C_3   0.948257 0.399880 0.442815 -0.253698
C56   C     C_3   0.051831 0.399692 0.557569 -0.253098
C57   C     C_3   0.511693 0.827826 0.431035 0.063707
C58   C     C_3   0.488495 0.827566 0.569097 0.063600
C59   C     C_3   0.011698 0.327822 0.431039 0.066168
C60   C     C_3   0.988497 0.327564 0.569099 0.065745
C61   C     C_3   0.181803 0.655797 0.457674 -0.233512
C62   C     C_3   0.818122 0.655282 0.542443 -0.233421
C63   C     C_3   0.681804 0.155807 0.457671 -0.233624
C64   C     C_3   0.318125 0.155274 0.542438 -0.233486
C65   C     C_3   0.180347 0.651358 0.538097 -0.238471
C66   C     C_3   0.819622 0.650944 0.461981 -0.239166
C67   C     C_3   0.680348 0.151365 0.538094 -0.238233
C68   C     C_3   0.319627 0.150936 0.461975 -0.239058
C69   C     C_3   0.242145 0.458860 0.472583 -0.222509
C70   C     C_3   0.757949 0.458523 0.526736 -0.223677
C71   C     C_3   0.742144 0.958870 0.472580 -0.222653
C72   C     C_3   0.257950 0.958515 0.526733 -0.223663
C73   C     C_3   0.307294 0.634150 0.445995 -0.262752
C74   C     C_3   0.692635 0.633593 0.554197 -0.262108
C75   C     C_3   0.807296 0.134158 0.445991 -0.262909
C76   C     C_3   0.192638 0.133589 0.554190 -0.262247
C77   C     C_3   0.240087 0.574405 0.429914 0.069394
C78   C     C_3   0.759955 0.573826 0.569973 0.068902
C79   C     C_3   0.740089 0.074414 0.429911 0.068931
C80   C     C_3   0.259957 0.073821 0.569969 0.068794
C81   C     C_3   0.250216 0.605002 0.568547 0.067476
C82   C     C_3   0.749729 0.605283 0.431449 0.067474
C83   C     C_3   0.750217 0.105010 0.568543 0.067992
C84   C     C_3   0.249735 0.105271 0.431442 0.067482
C85   C     C_3   0.253348 0.474733 0.554166 -0.259177
C86   C     C_3   0.746392 0.474954 0.445280 -0.257793
C87   C     C_3   0.753350 0.974741 0.554162 -0.259088
C88   C     C_3   0.246402 0.974942 0.445275 -0.257858
C89   C     C_R   0.263320 0.643640 0.855108 0.534285
C90   C     C_R   0.738492 0.637983 0.146985 0.529557
C91   C     C_R   0.762336 0.138269 0.853581 0.532138
C92   C     C_R   0.235698 0.147080 0.143825 0.543734
C93   C     C_3   0.309097 0.660106 0.527034 -0.224188
C94   C     C_3   0.691049 0.660807 0.473400 -0.225596
C95   C     C_3   0.809097 0.160117 0.527030 -0.223941
C96   C     C_3   0.191052 0.160792 0.473391 -0.225407
C97   C     C_R   0.272820 0.043889 0.646224 0.537195
C98   C     C_R   0.727301 0.044408 0.353627 0.536198
C99   C     C_R   0.772819 0.543892 0.646226 0.536267
C100  C     C_R   0.227299 0.544402 0.353630 0.535474
C101  C     C_R   0.467144 0.822531 0.645073 0.543790
C102  C     C_R   0.532926 0.822719 0.354985 0.543835
C103  C     C_R   0.967144 0.322531 0.645073 0.535504
C104  C     C_R   0.032931 0.322717 0.354990 0.534611
C105  C     C_R   0.259871 0.638937 0.644608 0.539316
C106  C     C_R   0.740054 0.639403 0.355486 0.539037
C107  C     C_R   0.759872 0.138942 0.644605 0.536950
C108  C     C_R   0.240060 0.139387 0.355478 0.538629
C109  C     C_3   0.480561 0.908186 0.038706 -0.120488
C110  C     C_3   0.510235 0.916444 0.964820 -0.116699
C111  C     C_3   0.937553 0.347975 0.030839 -0.162899
C112  C     C_3   0.974723 0.430612 0.979988 -0.121633
C113  C     C_3   0.431909 0.810289 0.012036 -0.146652
C114  C     C_3   0.565037 0.825638 0.986590 -0.149355
C115  C     C_3   0.953087 0.247173 0.979968 -0.122841
C116  C     C_3   0.040828 0.407053 0.022541 -0.119469
C117  C     C_3   0.463670 0.819543 0.938232 0.042305
C118  C     C_3   0.533628 0.818396 0.060901 0.040218
C119  C     C_3   0.991667 0.328762 0.930805 0.060463
C120  C     C_3   0.003964 0.323599 0.071265 0.052179
Cr1   Cr    Cr6+3 0.229620 0.836040 0.749110 0.958876
Cr2   Cr    Cr6+3 0.770380 0.836040 0.250890 0.960747
Cr3   Cr    Cr6+3 0.729620 0.336040 0.749110 0.964473
Cr4   Cr    Cr6+3 0.270380 0.336040 0.250890 0.960386
Cr5   Cr    Cr6+3 0.387630 0.990680 0.750730 0.983601
Cr6   Cr    Cr6+3 0.612370 0.990680 0.249270 0.982379
Cr7   Cr    Cr6+3 0.887630 0.490680 0.750730 0.984993
Cr8   Cr    Cr6+3 0.112370 0.490680 0.249270 0.987097
Cr9   Cr    Cr6+3 0.386020 0.676590 0.749210 0.978561
Cr10  Cr    Cr6+3 0.613980 0.676590 0.250790 0.979463
Cr11  Cr    Cr6+3 0.886020 0.176590 0.749210 0.986347
Cr12  Cr    Cr6+3 0.113980 0.176590 0.250790 0.982605
H1    H     H_    0.378255 0.801357 0.024940 0.088791
H2    H     H_    0.614916 0.826418 0.962378 0.091992
H3    H     H_    0.913273 0.192913 0.957328 0.125709
H4    H     H_    0.061374 0.484341 0.049231 0.124085
H5    H     H_    0.200471 0.748450 0.081267 0.119574
H6    H     H_    0.798349 0.744601 0.932407 0.115473
H7    H     H_    0.689430 0.232228 0.070314 0.122384
H8    H     H_    0.306738 0.244435 0.920573 0.123480
H9    H     H_    0.290437 0.743832 0.083756 0.100407
H10   H     H_    0.710706 0.738706 0.909499 0.092861
H11   H     H_    0.778154 0.245245 0.086945 0.097750
H12   H     H_    0.216539 0.247124 0.915668 0.095140
H13   H     H_    0.278049 0.790086 0.960161 0.097834
H14   H     H_    0.681184 0.737846 0.031612 0.096905
H15   H     H_    0.791846 0.270284 0.964569 0.103209
H16   H     H_    0.223850 0.291071 0.037137 0.103621
H17   H     H_    0.190352 0.751447 0.961052 0.132694
H18   H     H_    0.764675 0.784768 0.047499 0.133808
H19   H     H_    0.700321 0.246986 0.956098 0.143397
H20   H     H_    0.312282 0.249224 0.040128 0.136334
H21   H     H_    0.631810 0.054384 0.036377 0.147086
H22   H     H_    0.365098 0.075467 0.970115 0.144189
H23   H     H_    0.141688 0.587532 0.030914 0.140727
H24   H     H_    0.865336 0.583076 0.956865 0.149059
H25   H     H_    0.534517 0.633132 0.441823 0.135007
H26   H     H_    0.465828 0.633249 0.557764 0.134827
H27   H     H_    0.034522 0.133130 0.441825 0.135505
H28   H     H_    0.965828 0.133246 0.557765 0.134984
H29   H     H_    0.448129 0.671280 0.439476 0.116764
H30   H     H_    0.552256 0.671033 0.560290 0.117069
H31   H     H_    0.948133 0.171277 0.439476 0.116269
H32   H     H_    0.052256 0.171027 0.560295 0.116430
H33   H     H_    0.609365 0.826126 0.475916 0.110171
H34   H     H_    0.390992 0.825180 0.523883 0.110409
H35   H     H_    0.109368 0.326114 0.475928 0.110407
H36   H     H_    0.890993 0.325186 0.523888 0.110567
H37   H     H_    0.594906 0.868571 0.592484 0.099481
H38   H     H_    0.405256 0.869025 0.407676 0.099631
H39   H     H_    0.094907 0.368565 0.592494 0.098216
H40   H     H_    0.905260 0.369015 0.407681 0.098172
H41   H     H_    0.484332 0.986805 0.070169 0.138745
H42   H     H_    0.505565 0.003115 0.940633 0.129002
H43   H     H_    0.890017 0.351657 0.059261 0.080575
H44   H     H_    0.964387 0.520048 0.960972 0.111459
H45   H     H_    0.458215 0.993087 0.429879 0.121103
H46   H     H_    0.541772 0.992839 0.570991 0.121349
H47   H     H_    0.958218 0.493082 0.429882 0.120889
H48   H     H_    0.041775 0.492835 0.570997 0.121146
H49   H     H_    0.417755 0.971705 0.545391 0.128976
H50   H     H_    0.581886 0.972390 0.455266 0.128080
H51   H     H_    0.917761 0.471709 0.545392 0.129258
H52   H     H_    0.081894 0.472380 0.455273 0.128343
H53   H     H_    0.129644 0.635344 0.437796 0.139393
H54   H     H_    0.870326 0.635038 0.562300 0.139235
H55   H     H_    0.629645 0.135354 0.437793 0.139379
H56   H     H_    0.370328 0.135032 0.562297 0.139308
H57   H     H_    0.191091 0.746462 0.439727 0.114556
H58   H     H_    0.808594 0.745909 0.560646 0.114849
H59   H     H_    0.691093 0.246472 0.439724 0.114551
H60   H     H_    0.308596 0.245901 0.560640 0.114903
H61   H     H_    0.165363 0.739376 0.556438 0.136527
H62   H     H_    0.834634 0.738866 0.443900 0.136164
H63   H     H_    0.665363 0.239381 0.556437 0.136698
H64   H     H_    0.334637 0.238859 0.443895 0.136155
H65   H     H_    0.139232 0.592645 0.555366 0.114595
H66   H     H_    0.860640 0.591890 0.444517 0.114994
H67   H     H_    0.639233 0.092650 0.555362 0.114721
H68   H     H_    0.360646 0.091887 0.444511 0.115214
H69   H     H_    0.692434 0.924815 0.462003 0.109489
H70   H     H_    0.307751 0.924505 0.536593 0.109332
H71   H     H_    0.192437 0.424801 0.462004 0.109494
H72   H     H_    0.807753 0.424518 0.536588 0.109219
H73   H     H_    0.713950 0.927196 0.584069 0.099433
H74   H     H_    0.285574 0.927135 0.414926 0.099290
H75   H     H_    0.213947 0.427189 0.584072 0.099200
H76   H     H_    0.785560 0.427142 0.414928 0.099138
H77   H     H_    0.349774 0.574739 0.432030 0.116820
H78   H     H_    0.650279 0.573835 0.567504 0.117695
H79   H     H_    0.849775 0.074746 0.432028 0.116959
H80   H     H_    0.150282 0.073835 0.567500 0.117068
H81   H     H_    0.311964 0.716022 0.414521 0.099090
H82   H     H_    0.687654 0.714960 0.586364 0.099144
H83   H     H_    0.811966 0.216028 0.414515 0.098470
H84   H     H_    0.187659 0.214961 0.586352 0.098842
H85   H     H_    0.516823 0.646254 0.930624 0.137108
H86   H     H_    0.492579 0.636027 0.061569 0.127218
H87   H     H_    0.110230 0.288145 0.954898 0.085318
H88   H     H_    0.029555 0.130314 0.040861 0.107783
H89   H     H_    0.299956 0.751114 0.534161 0.110186
H90   H     H_    0.700811 0.751739 0.467577 0.110266
H91   H     H_    0.799955 0.251124 0.534155 0.110119
H92   H     H_    0.200810 0.251724 0.467559 0.110225
H93   H     H_    0.358834 0.634069 0.550384 0.135094
H94   H     H_    0.641246 0.636353 0.449690 0.135348
H95   H     H_    0.858835 0.134083 0.550381 0.135162
H96   H     H_    0.141250 0.136328 0.449684 0.135556
H97   H     H_    0.281277 0.399431 0.452106 0.131420
H98   H     H_    0.719122 0.398873 0.547164 0.130631
H99   H     H_    0.781274 0.899437 0.452102 0.131374
H100  H     H_    0.219118 0.898871 0.547159 0.130635
H101  H     H_    0.304185 0.440625 0.571491 0.118963
H102  H     H_    0.695424 0.441443 0.428063 0.119549
H103  H     H_    0.804187 0.940634 0.571485 0.118809
H104  H     H_    0.195436 0.941427 0.428052 0.119544
H105  H     H_    0.307456 0.425554 0.046558 0.139903
H106  H     H_    0.700324 0.414447 0.945585 0.150576
H107  H     H_    0.818514 0.926982 0.059756 0.143406
H108  H     H_    0.189871 0.930682 0.953081 0.137415
H109  H     H_    0.364990 0.616411 0.958878 0.138879
H110  H     H_    0.639696 0.546368 0.059234 0.140764
H111  H     H_    0.865302 0.044119 0.940346 0.127411
H112  H     H_    0.138714 0.129573 0.038040 0.139639
H113  H     H_    0.336977 0.474039 0.933383 0.102173
H114  H     H_    0.698175 0.429661 0.068668 0.089633
H115  H     H_    0.811887 0.932330 0.939847 0.078982
H116  H     H_    0.159149 0.983367 0.064378 0.105500
H117  H     H_    0.676087 0.921979 0.038899 0.079002
H118  H     H_    0.334792 0.936543 0.957850 0.084335
H119  H     H_    0.167302 0.438499 0.041995 0.101907
H120  H     H_    0.834264 0.438902 0.962346 0.101648
H121  H     H_    0.704343 0.932750 0.921495 0.095335
H122  H     H_    0.277844 0.934126 0.068570 0.101354
H123  H     H_    0.219897 0.433875 0.931701 0.102151
H124  H     H_    0.811592 0.460898 0.082015 0.088040
O1    O     O_R   0.214130 0.708570 0.829890 -0.541631
O2    O     O_R   0.785870 0.708570 0.170110 -0.538558
O3    O     O_R   0.714130 0.208570 0.829890 -0.545344
O4    O     O_R   0.285870 0.208570 0.170110 -0.546230
O5    O     O_R   0.446360 0.919990 0.675230 -0.508804
O6    O     O_R   0.553640 0.919990 0.324770 -0.508647
O7    O     O_R   0.946360 0.419990 0.675230 -0.514301
O8    O     O_R   0.053640 0.419990 0.324770 -0.513600
O9    O     O_R   0.457170 0.717300 0.668380 -0.533706
O10   O     O_R   0.542830 0.717300 0.331620 -0.534099
O11   O     O_R   0.957170 0.217300 0.668380 -0.537720
O12   O     O_R   0.042830 0.217300 0.331620 -0.540045
O13   O     O_R   0.320870 0.624890 0.673130 -0.512867
O14   O     O_R   0.679130 0.624890 0.326870 -0.513602
O15   O     O_R   0.820870 0.124890 0.673130 -0.514073
O16   O     O_R   0.179130 0.124890 0.326870 -0.513186
O17   O     O_3   0.334430 0.834430 0.749680 -0.287635
O18   O     O_3   0.665570 0.834430 0.250320 -0.284172
O19   O     O_3   0.834430 0.334430 0.749680 -0.267682
O20   O     O_3   0.165570 0.334430 0.250320 -0.268492
O21   O     O_R   0.236050 0.959150 0.825270 -0.517908
O22   O     O_R   0.763950 0.959150 0.174730 -0.524130
O23   O     O_R   0.736050 0.459150 0.825270 -0.520023
O24   O     O_R   0.263950 0.459150 0.174730 -0.519671
O25   O     O_R   0.332100 0.076650 0.832310 -0.539130
O26   O     O_R   0.667900 0.076650 0.167690 -0.538420
O27   O     O_R   0.832100 0.576650 0.832310 -0.534700
O28   O     O_R   0.167900 0.576650 0.167690 -0.534328
O29   O     O_R   0.446500 0.918620 0.826240 -0.509789
O30   O     O_R   0.553500 0.918620 0.173760 -0.513977
O31   O     O_R   0.946500 0.418620 0.826240 -0.513398
O32   O     O_R   0.053500 0.418620 0.173760 -0.515193
O33   O     O_R   0.457310 0.715830 0.831280 -0.534718
O34   O     O_R   0.542690 0.715830 0.168720 -0.528722
O35   O     O_R   0.957310 0.215830 0.831280 -0.528694
O36   O     O_R   0.042690 0.215830 0.168720 -0.538252
O37   O     O_R   0.321000 0.623520 0.824130 -0.525357
O38   O     O_R   0.679000 0.623520 0.175870 -0.525655
O39   O     O_R   0.821000 0.123520 0.824130 -0.513539
O40   O     O_R   0.179000 0.123520 0.175870 -0.511785
O41   O     O_R   0.213990 0.710040 0.667000 -0.535634
O42   O     O_R   0.786010 0.710040 0.333000 -0.536414
O43   O     O_R   0.713990 0.210040 0.667000 -0.537319
O44   O     O_R   0.286010 0.210040 0.333000 -0.536661
O45   O     O_R   0.235920 0.960520 0.674260 -0.516760
O46   O     O_R   0.764080 0.960520 0.325740 -0.515123
O47   O     O_R   0.735920 0.460520 0.674260 -0.516626
O48   O     O_R   0.264080 0.460520 0.325740 -0.518984
O49   O     O_R   0.331960 0.078120 0.669410 -0.534849
O50   O     O_R   0.668040 0.078120 0.330590 -0.534768
O51   O     O_R   0.831960 0.578120 0.669410 -0.535176
O52   O     O_R   0.168040 0.578120 0.330590 -0.534791
C121  C     C_3   0.135166 0.527242 0.889356 -0.251883
C122  C     C_3   0.082842 0.624882 0.899481 -0.411496
H125  H     H_    0.062659 0.627918 0.953952 0.117560
H126  H     H_    0.104219 0.710399 0.887273 0.158572
H127  H     H_    0.039132 0.610772 0.861451 0.145187
H128  H     H_    0.151840 0.528406 0.833144 0.163064
H129  H     H_    0.107673 0.444575 0.889881 0.128791
C123  C     C_3   0.882315 0.601182 0.093272 -0.248184
C124  C     C_3   0.902831 0.725032 0.071555 -0.424236
H130  H     H_    0.886852 0.747591 0.016101 0.132028
H131  H     H_    0.881796 0.788964 0.109021 0.172873
H132  H     H_    0.959094 0.734034 0.075942 0.115945
H133  H     H_    0.881044 0.594031 0.152456 0.168473
H134  H     H_    0.926227 0.546202 0.082181 0.137493
C125  C     C_3   0.628296 0.049787 0.889099 -0.246493
C126  C     C_3   0.585279 0.158942 0.905657 -0.418161
H135  H     H_    0.572429 0.165368 0.962864 0.120041
H136  H     H_    0.610114 0.240513 0.890097 0.164463
H137  H     H_    0.537198 0.155918 0.872972 0.129198
H138  H     H_    0.642828 0.052683 0.832343 0.168137
H139  H     H_    0.596679 0.971859 0.883155 0.134921
C127  C     C_3   0.360682 0.028846 0.115133 -0.240681
C128  C     C_3   0.410209 0.134143 0.109936 -0.404354
H140  H     H_    0.429355 0.146886 0.055340 0.106481
H141  H     H_    0.389448 0.218627 0.125300 0.168040
H142  H     H_    0.453976 0.120378 0.147992 0.135001
H143  H     H_    0.341136 0.026225 0.170202 0.163483
H144  H     H_    0.387489 0.944878 0.117029 0.130490
C129  C     C_3   0.379375 0.546041 0.087731 -0.293432
C130  C     C_3   0.395737 0.490774 0.160683 -0.392382
H145  H     H_    0.372300 0.541630 0.204358 0.175370
H146  H     H_    0.380350 0.398177 0.162041 0.167960
H147  H     H_    0.451618 0.494083 0.171439 0.122050
H148  H     H_    0.419435 0.509716 0.053298 0.124275
H149  H     H_    0.383833 0.640914 0.095651 0.162935
C131  C     C_3   0.624527 0.538912 0.925210 -0.302292
C132  C     C_3   0.605511 0.505233 0.847776 -0.400001
H150  H     H_    0.630566 0.564277 0.809468 0.173214
H151  H     H_    0.617280 0.412563 0.836545 0.169265
H152  H     H_    0.549840 0.516479 0.838397 0.130333
H153  H     H_    0.584269 0.499580 0.958263 0.121605
H154  H     H_    0.622913 0.633890 0.928050 0.162313
C133  C     C_3   0.877754 0.072367 0.079975 -0.301787
C134  C     C_3   0.891760 0.050024 0.159762 -0.409896
H155  H     H_    0.856753 0.102115 0.192893 0.164233
H156  H     H_    0.888924 0.955893 0.172905 0.158009
H157  H     H_    0.944080 0.078798 0.174350 0.160507
H158  H     H_    0.922615 0.037824 0.051828 0.133213
H159  H     H_    0.875712 0.166436 0.073646 0.161328
C135  C     C_3   0.123262 0.061186 0.905704 -0.273195
C136  C     C_3   0.100000 0.974754 0.847102 -0.392481
H160  H     H_    0.116062 0.005112 0.793695 0.169128
H161  H     H_    0.120707 0.886766 0.856979 0.163008
H162  H     H_    0.043529 0.968720 0.844528 0.119573
H163  H     H_    0.078804 0.068741 0.940072 0.144058
H164  H     H_    0.130269 0.146400 0.879260 0.143438

loop_
_geom_bond_atom_site_label_1
_geom_bond_atom_site_label_2
_ccdc_geom_bond_type
C82   C94   S    
C55   C59   S    
C83   C87   S    
C73   C93   S    
C47   O35   A    
C42   C58   S    
C29   C89   S    
C129  C130  S    
C75   C95   S    
C48   C120  S    
Cr5   O17   S    
C24   H8    S    
C57   C102  S    
C36   C127  S    
C85   H101  S    
C59   C104  S    
C63   H55   S    
Cr1   O21   S    
Cr2   O18   S    
C5    C6    S    
Cr10  O14   S    
C109  H41   S    
Cr11  O11   S    
C22   C38   S    
C29   C33   S    
C87   H103  S    
C30   C38   S    
C77   C100  S    
C9    C13   S    
C87   H73   S    
C92   O4    A    
C11   C15   S    
C5    H85   S    
C12   C16   S    
C126  H135  S    
C102  O6    A    
C99   O51   A    
C125  H139  S    
C103  O11   A    
C60   C103  S    
C123  H134  S    
C83   C107  S    
C113  H1    S    
C74   H82   S    
C61   H57   S    
C54   H37   S    
C23   H11   S    
C64   H60   S    
C109  C118  S    
C15   H111  S    
C16   H116  S    
C70   H72   S    
Cr5   O29   S    
C50   C53   S    
C127  C128  S    
C125  C126  S    
C46   O30   A    
C7    C119  S    
C33   H123  S    
Cr8   O32   S    
C62   H58   S    
C62   C66   S    
C133  H158  S    
C20   C28   S    
Cr3   O3    S    
C90   O38   A    
C54   H46   S    
C123  C124  S    
C51   C56   S    
C100  O48   A    
C124  H132  S    
C43   C44   S    
C1    O21   A    
C66   C82   S    
C20   H118  S    
C11   C27   S    
C134  H155  S    
C58   C101  S    
C132  H152  S    
C106  O42   A    
C53   H38   S    
C56   H39   S    
C4    O24   A    
C90   O2    A    
C55   H40   S    
C18   H24   S    
C92   O40   A    
C131  H153  S    
Cr2   O46   S    
C3    C26   S    
Cr3   O43   S    
C84   C88   S    
C31   C91   S    
Cr7   O19   S    
C53   H45   S    
Cr12  O16   S    
Cr10  O38   S    
Cr11  O35   S    
C17   C25   S    
C19   C35   S    
C76   C96   S    
C1    O25   A    
C32   C92   S    
C126  H137  S    
C75   H83   S    
Cr3   O23   S    
C33   C121  S    
C98   O46   A    
C36   H122  S    
C21   H9    S    
C61   C65   S    
C12   H108  S    
C136  H160  S    
C73   C77   S    
C104  O8    A    
C75   C79   S    
Cr12  O20   S    
C67   C83   S    
Cr8   O52   S    
C80   C97   S    
C69   C77   S    
C111  C112  S    
C71   C79   S    
C4    C25   S    
Cr4   O24   S    
C7    C8    S    
Cr4   O48   S    
C64   C68   S    
C73   H77   S    
C44   C60   S    
C43   H27   S    
C134  H157  S    
C39   H19   S    
C49   C57   S    
C40   H20   S    
C34   H124  S    
C11   C133  S    
C38   H14   S    
C52   C60   S    
C14   H110  S    
C61   C77   S    
C93   H93   S    
C135  H164  S    
C110  C114  S    
C129  H148  S    
C43   C59   S    
C62   H54   S    
C76   H80   S    
C10   H106  S    
Cr6   O18   S    
Cr2   O22   S    
Cr3   O19   S    
C95   H95   S    
C110  H42   S    
C81   C105  S    
C30   C34   S    
C10   C14   S    
C95   H91   S    
C116  C120  S    
C9    C129  S    
C20   C36   S    
C7    C116  S    
C69   H97   S    
C128  H141  S    
C78   C99   S    
C22   H10   S    
C61   H53   S    
C114  H2    S    
Cr11  O15   S    
C66   H66   S    
C64   H56   S    
C113  C117  S    
C16   H112  S    
C112  H44   S    
Cr5   O25   S    
C130  H146  S    
C127  H143  S    
Cr6   O30   S    
C9    H105  S    
Cr10  O18   S    
Cr8   O28   S    
C112  C116  S    
C69   C85   S    
C85   H75   S    
C72   H70   S    
C56   H48   S    
C45   C117  S    
C21   C25   S    
C45   O33   A    
C72   H100  S    
C55   H47   S    
C62   C78   S    
C24   C28   S    
C2    O22   A    
C42   H30   S    
C15   C31   S    
C16   C32   S    
C130  H147  S    
C97   O49   A    
C72   C80   S    
C107  O43   A    
C34   C123  S    
C115  H3    S    
C4    O28   A    
C136  H162  S    
C82   C106  S    
Cr5   O49   S    
C128  H142  S    
C91   O3    A    
C97   O45   A    
C131  C132  S    
C69   H71   S    
C126  H136  S    
Cr5   O5    S    
C94   H90   S    
C81   C85   S    
Cr1   O1    S    
C13   H113  S    
C12   C135  S    
C41   H29   S    
C41   C42   S    
C74   C94   S    
Cr9   O17   S    
C18   C26   S    
C30   C90   S    
C9    C25   S    
C2    O26   A    
C75   H79   S    
C86   H102  S    
C12   C28   S    
C13   C29   S    
C114  C118  S    
C67   H67   S    
C98   O50   A    
C45   O29   A    
C46   C118  S    
C124  H131  S    
C66   H62   S    
C6    H86   S    
C51   H35   S    
C133  C134  S    
C134  H156  S    
C50   H34   S    
C1    C28   S    
Cr1   O41   S    
C2    C27   S    
C132  H151  S    
Cr4   O44   S    
C52   C55   S    
C32   C36   S    
C105  O13   A    
C64   C80   S    
C73   H81   S    
C42   H26   S    
C17   C33   S    
C110  C117  S    
C38   H18   S    
C65   H61   S    
C121  H129  S    
C131  H154  S    
C40   H16   S    
C107  O15   A    
C68   C84   S    
C76   C80   S    
C108  O16   A    
C51   H52   S    
C86   H76   S    
C53   C57   S    
C19   H117  S    
C82   C86   S    
C17   H119  S    
C56   C60   S    
C115  C119  S    
C50   C58   S    
C128  H140  S    
C49   H33   S    
C48   O36   A    
Cr7   O31   S    
C76   H84   S    
C65   C81   S    
Cr7   O51   S    
C68   H64   S    
C10   C131  S    
C71   C87   S    
C15   H115  S    
C123  H133  S    
C44   H28   S    
C31   C35   S    
C96   H96   S    
Cr9   O9    S    
C101  O9    A    
C122  H125  S    
C37   H17   S    
C112  C119  S    
C121  H128  S    
C116  H4    S    
C22   H6    S    
C41   C57   S    
C47   O31   A    
C109  C110  S    
C48   O32   A    
C89   O37   A    
C24   H12   S    
C63   H59   S    
Cr6   O26   S    
C91   O39   A    
C84   C108  S    
Cr7   O7    S    
Cr8   O8    S    
Cr1   O17   S    
C94   H94   S    
Cr10  O10   S    
Cr12  O40   S    
C21   C37   S    
Cr4   O4    S    
C22   C26   S    
C29   C37   S    
C44   H32   S    
C122  H127  S    
C43   H31   S    
C101  O5    A    
C5    C114  S    
C70   C78   S    
C79   C98   S    
C52   H51   S    
C35   C125  S    
C63   C79   S    
C121  C122  S    
C20   H22   S    
C74   H78   S    
C111  H43   S    
C23   H7    S    
Cr6   O50   S    
C46   O34   A    
C11   H107  S    
C49   C54   S    
Cr6   O6    S    
C19   H21   S    
C125  H138  S    
C84   C96   S    
Cr7   O27   S    
Cr8   O20   S    
C8    C115  S    
C3    O23   A    
Cr2   O2    S    
C13   H109  S    
C18   H120  S    
C96   H92   S    
Cr12  O36   S    
Cr9   O37   S    
C19   C27   S    
C74   C78   S    
C109  C113  S    
C7    H87   S    
C10   C26   S    
C47   C119  S    
Cr9   O33   S    
C127  H144  S    
C124  H130  S    
C105  O41   A    
C14   C30   S    
C67   H63   S    
C72   C88   S    
C108  O44   A    
C88   H104  S    
C63   C67   S    
C89   O1    A    
Cr1   O45   S    
C21   H5    S    
C5    C117  S    
C111  C120  S    
Cr2   O42   S    
Cr3   O47   S    
C70   H98   S    
C6    C113  S    
Cr11  O19   S    
C8    H88   S    
Cr12  O12   S    
C81   C93   S    
C83   C95   S    
Cr10  O34   S    
Cr11  O39   S    
C135  H163  S    
C136  H161  S    
C18   C34   S    
C129  H149  S    
C65   H65   S    
C106  O14   A    
C23   C27   S    
C41   H25   S    
C50   H49   S    
C51   C59   S    
C70   C86   S    
C122  H126  S    
C99   O47   A    
C8    C120  S    
C35   H121  S    
C54   C58   S    
C71   H69   S    
C104  O12   A    
C88   H74   S    
C111  C115  S    
C68   H68   S    
C71   H99   S    
C52   H36   S    
Cr4   O20   S    
C23   C39   S    
C3    O27   A    
C24   C40   S    
C31   C39   S    
C32   C40   S    
C135  C136  S    
Cr9   O13   S    
C49   H50   S    
C100  O52   A    
C130  H145  S    
C102  O10   A    
C39   H15   S    
C103  O7    A    
C93   H89   S    
C37   H13   S    
C132  H150  S    
C6    C118  S    
C133  H159  S    
C14   H114  S    
C17   H23   S    
