data_str_m2_o10_o28_f0_pcu.sym.27
_audit_creation_date              2012-10-26T20:18:15-0400
_audit_creation_method            fapswitch 2.2
_symmetry_space_group_name_H-M    P1
_symmetry_Int_Tables_number       1
_space_group_crystal_system       triclinic
_cell_length_a                    23.50411
_cell_length_b                    8.651075
_cell_length_c                    7.436349
_cell_angle_alpha                 103.003407
_cell_angle_beta                  93.839809
_cell_angle_gamma                 91.948049
_cell_volume                      1468.12107393

loop_
_atom_site_label
_atom_site_type_symbol
_atom_type_description
_atom_site_fract_x
_atom_site_fract_y
_atom_site_fract_z
_atom_type_partial_charge
C1    C     C_R   0.498738 0.199718 0.453168 0.534690
C2    C     C_R   0.704677 0.581796 0.652997 -0.167523
C3    C     C_R   0.243944 0.425085 0.642597 0.139599
C4    C     C_R   0.764242 0.586621 0.659930 0.140609
C5    C     C_R   0.210008 0.495572 0.522096 0.232820
C6    C     C_R   0.791557 0.516061 0.501887 0.262124
C7    C     C_2   0.499028 0.031833 0.426739 -0.169051
C8    C     C_2   0.499334 0.967918 0.572786 -0.172384
C9    C     C_R   0.391251 0.502094 0.503378 0.539557
C10   C     C_R   0.608954 0.498618 0.496842 0.538268
C11   C     C_R   0.884937 0.654025 0.543070 0.435827
C12   C     C_R   0.500681 0.800209 0.546783 0.545283
C13   C     C_R   0.116692 0.357765 0.470998 0.394756
C14   C     C_R   0.877956 0.370138 0.475204 0.400925
C15   C     C_R   0.124259 0.640112 0.579795 0.396480
C16   C     C_R   0.937433 0.363946 0.474667 0.031544
C17   C     C_R   0.064681 0.646709 0.572745 0.033288
C18   C     C_R   0.971004 0.507137 0.517778 -0.029017
C19   C     C_R   0.031003 0.503758 0.522458 -0.026428
C20   C     C_R   0.944724 0.653685 0.554912 0.027961
C21   C     C_R   0.057146 0.357529 0.474723 0.030713
C22   C     C_R   0.963993 0.218421 0.432093 -0.124383
C23   C     C_R   0.236189 0.573731 0.401221 -0.069169
C24   C     C_R   0.038109 0.792305 0.613111 -0.123633
C25   C     C_R   0.023224 0.215323 0.429570 -0.131230
C26   C     C_R   0.978703 0.795820 0.601907 -0.130483
C27   C     C_R   0.321099 0.695307 0.300016 0.047519
C28   C     C_R   0.339244 0.849469 0.397551 -0.072771
C29   C     C_R   0.360812 0.958928 0.303642 -0.094315
C30   C     C_R   0.365310 0.914305 0.112673 -0.088460
C31   C     C_R   0.347518 0.760733 0.015080 -0.085111
C32   C     C_R   0.325114 0.651501 0.108210 -0.064975
C33   C     C_R   0.668599 0.316012 0.172362 0.052469
C34   C     C_R   0.758841 0.438497 0.340439 -0.094258
C35   C     C_R   0.636372 0.182259 0.193933 -0.046304
C36   C     C_R   0.613561 0.068927 0.038538 -0.103134
C37   C     C_R   0.623187 0.087540 0.861030 -0.098166
C38   C     C_R   0.654129 0.221559 0.838216 -0.074080
C39   C     C_R   0.676872 0.335289 0.993141 -0.079600
C40   C     C_R   0.295503 0.583763 0.399327 -0.049232
C41   C     C_R   0.699172 0.424784 0.335590 -0.051992
C42   C     C_R   0.329120 0.504077 0.510585 -0.041654
C43   C     C_R   0.671569 0.500842 0.492918 -0.033060
C44   C     C_R   0.302986 0.425962 0.631723 -0.127482
Cu1   Cu    Cu3+1 0.506340 0.517380 0.684380 0.934505
Cu2   Cu    Cu3+1 0.493660 0.482620 0.315620 0.957032
H1    H     H_    0.939091 0.106634 0.398040 0.176118
H2    H     H_    0.499172 0.039219 0.713337 0.130995
H3    H     H_    0.454951 0.380038 0.949069 0.234322
H4    H     H_    0.545042 0.619991 0.050928 0.235671
H5    H     H_    0.335934 0.885274 0.545609 0.109071
H6    H     H_    0.374011 0.078343 0.378946 0.115016
H7    H     H_    0.382363 0.998862 0.040269 0.112900
H8    H     H_    0.350751 0.727193 0.867232 0.126226
H9    H     H_    0.311036 0.533197 0.032036 0.132057
H10   H     H_    0.630365 0.163381 0.330701 0.094075
H11   H     H_    0.589503 0.964954 0.055744 0.105413
H12   H     H_    0.063072 0.903962 0.650952 0.171247
H13   H     H_    0.607406 0.997097 0.741105 0.113913
H14   H     H_    0.661468 0.235642 0.700544 0.119668
H15   H     H_    0.702003 0.436537 0.973906 0.096409
H16   H     H_    0.195671 0.445111 0.861376 0.240894
H17   H     H_    0.193066 0.260831 0.720424 0.291143
H18   H     H_    0.785926 0.601607 0.931052 0.216447
H19   H     H_    0.785549 0.777681 0.868635 0.258143
H20   H     H_    0.042322 0.101289 0.393735 0.165335
H21   H     H_    0.959554 0.910045 0.631797 0.164683
H22   H     H_    0.210140 0.633537 0.314646 0.149024
H23   H     H_    0.780487 0.380926 0.220912 0.142099
H24   H     H_    0.328724 0.367603 0.720600 0.130052
H25   H     H_    0.684320 0.640152 0.774961 0.126608
H26   H     H_    0.498822 0.960562 0.286046 0.132277
N1    N     N_R   0.852812 0.513661 0.507307 -0.380402
N2    N     N_R   0.149064 0.497218 0.527970 -0.401551
N3    N     N_2   0.484110 0.456420 0.038520 -0.251687
N4    N     N_2   0.515890 0.543580 0.961480 -0.251830
N5    N     N_3   0.219918 0.359442 0.782883 -0.624843
N6    N     N_3   0.797082 0.659894 0.828713 -0.570999
O1    O     O_R   0.504120 0.286130 0.619770 -0.500637
O2    O     O_2   0.141935 0.220308 0.407664 -0.491189
O3    O     O_2   0.845480 0.233728 0.444913 -0.482366
O4    O     O_2   0.157213 0.775463 0.636984 -0.489614
O5    O     O_R   0.495880 0.713870 0.380230 -0.497503
O6    O     O_R   0.493410 0.256770 0.308360 -0.501200
O7    O     O_R   0.506590 0.743230 0.691640 -0.505838
O8    O     O_R   0.423230 0.514630 0.655730 -0.517284
O9    O     O_R   0.576770 0.485370 0.344270 -0.491486
O10   O     O_R   0.412530 0.485280 0.344320 -0.487161
O11   O     O_R   0.587470 0.514720 0.655680 -0.505452
O12   O     O_2   0.859102 0.793317 0.565688 -0.466839

loop_
_geom_bond_atom_site_label_1
_geom_bond_atom_site_label_2
_ccdc_geom_bond_type
H16   N5    S    
Cu1   O7    S    
C35   C36   A    
C7    C8    D    
Cu1   Cu2   S    
C1    O6    A    
C9    C42   S    
C33   C39   A    
C12   O7    A    
Cu1   N4    S    
C26   H21   S    
C28   C29   A    
C19   C21   A    
C24   C26   A    
C9    O10   A    
C30   C31   A    
C28   H5    S    
C23   C40   A    
C18   C19   A    
C5    N2    S    
C33   C35   A    
C10   O11   A    
C22   C25   A    
H3    N3    S    
C44   H24   S    
C29   C30   A    
Cu1   O11   S    
C2    C43   A    
C32   H9    S    
C40   C42   A    
C22   H1    S    
C27   C32   A    
C13   O2    S    
C41   C43   A    
C34   C41   A    
C42   C44   A    
C39   H15   S    
Cu2   N3    S    
C15   O4    S    
Cu2   O10   S    
C3    C44   A    
C30   H7    S    
C10   O9    A    
C17   C24   A    
C14   N1    A    
C4    C6    A    
C36   H11   S    
C11   N1    A    
C7    H26   S    
C11   C20   A    
C6    C34   A    
C12   O5    A    
C23   H22   S    
C2    C4    A    
N3    N4    D    
C8    H2    S    
C4    N6    S    
C37   C38   A    
H4    N4    S    
C9    O8    A    
C31   C32   A    
C5    C23   A    
C27   C40   S    
C8    C12   S    
C13   C21   A    
Cu1   O1    S    
C34   H23   S    
C37   H13   S    
C38   H14   S    
C16   C18   A    
C1    O1    A    
C14   C16   A    
C2    H25   S    
C3    N5    S    
C6    N1    S    
Cu2   O9    S    
H17   N5    S    
C15   C17   A    
C21   C25   A    
C36   C37   A    
C16   C22   A    
H19   N6    S    
C35   H10   S    
C1    C7    S    
H18   N6    S    
C25   H20   S    
C3    C5    A    
C10   C43   S    
C33   C41   S    
Cu1   O8    S    
C11   O12   S    
C38   C39   A    
C20   C26   A    
C17   C19   A    
Cu2   O6    S    
C18   C20   A    
C31   H8    S    
Cu2   O5    S    
C15   N2    A    
C13   N2    A    
C24   H12   S    
C27   C28   A    
C14   O3    S    
C29   H6    S    
