data_str_m2_o13_o15_f0_pcu.sym.59
_audit_creation_date              2012-10-26T18:50:04-0400
_audit_creation_method            fapswitch 2.2
_symmetry_space_group_name_H-M    P1
_symmetry_Int_Tables_number       1
_space_group_crystal_system       triclinic
_cell_length_a                    10.822974
_cell_length_b                    12.998207
_cell_length_c                    11.623521
_cell_angle_alpha                 100.099994
_cell_angle_beta                  92.837708
_cell_angle_gamma                 90.236823
_cell_volume                      1607.73750079

loop_
_atom_site_label
_atom_site_type_symbol
_atom_type_description
_atom_site_fract_x
_atom_site_fract_y
_atom_site_fract_z
_atom_type_partial_charge
C1    C     C_R   0.497945 0.298932 0.478465 0.550911
C2    C     C_R   0.487930 0.860452 0.434071 -0.134885
C3    C     C_R   0.509509 0.031511 0.555833 0.044902
C4    C     C_R   0.490518 0.968489 0.444174 0.044840
C5    C     C_R   0.385683 0.398157 0.023020 -0.060382
C6    C     C_R   0.614314 0.601883 0.976981 -0.060360
C7    C     C_R   0.395881 0.410390 0.145806 0.039349
C8    C     C_R   0.604073 0.589656 0.854190 0.039296
C9    C     C_R   0.550137 0.541854 0.156957 0.022425
C10   C     C_R   0.449920 0.458105 0.843045 0.022523
C11   C     C_R   0.541551 0.536833 0.034066 -0.016216
C12   C     C_R   0.502058 0.701068 0.521536 0.550875
C13   C     C_R   0.458474 0.463178 0.965939 -0.016209
C14   C     C_R   0.262504 0.512586 0.503147 0.544918
C15   C     C_R   0.737505 0.487443 0.496856 0.544898
C16   C     C_R   0.123008 0.532189 0.724019 -0.088998
C17   C     C_R   0.877006 0.467992 0.275996 -0.089042
C18   C     C_R   0.068772 0.499649 0.818012 -0.126443
C19   C     C_R   0.931236 0.500584 0.182029 -0.126408
C20   C     C_R   0.957368 0.444513 0.800207 -0.124300
C21   C     C_R   0.042656 0.555689 0.199849 -0.124224
C22   C     C_R   0.894979 0.430244 0.690817 -0.084822
C23   C     C_R   0.504047 0.814521 0.534013 0.001438
C24   C     C_R   0.105059 0.569890 0.309227 -0.084824
C25   C     C_R   0.943718 0.471148 0.596941 0.009267
C26   C     C_R   0.056305 0.528965 0.403080 0.009274
C27   C     C_R   0.066335 0.509665 0.609532 0.012273
C28   C     C_R   0.933681 0.490462 0.390484 0.012275
C29   C     C_R   0.873128 0.474373 0.491720 -0.046081
C30   C     C_R   0.126892 0.525715 0.508290 -0.046097
C31   C     C_R   0.300701 0.315675 0.958369 0.001863
C32   C     C_R   0.345665 0.234450 0.875269 -0.103959
C33   C     C_R   0.265099 0.156723 0.815055 -0.109062
C34   C     C_R   0.495966 0.185479 0.465992 0.001434
C35   C     C_R   0.139682 0.158464 0.838648 -0.093530
C36   C     C_R   0.094751 0.237580 0.922974 -0.102938
C37   C     C_R   0.174910 0.315656 0.983035 -0.104376
C38   C     C_R   0.699341 0.684360 0.041619 0.001877
C39   C     C_R   0.825001 0.684602 0.016598 -0.104573
C40   C     C_R   0.905212 0.762597 0.076735 -0.103058
C41   C     C_R   0.860490 0.841382 0.161554 -0.093538
C42   C     C_R   0.735197 0.842930 0.185487 -0.109018
C43   C     C_R   0.654557 0.765329 0.125134 -0.103894
C44   C     C_R   0.474471 0.014458 0.344372 -0.147309
C45   C     C_R   0.525573 0.985541 0.655632 -0.147334
C46   C     C_R   0.477377 0.122624 0.355199 -0.136530
C47   C     C_R   0.522662 0.877374 0.644804 -0.136565
C48   C     C_R   0.512076 0.139550 0.565937 -0.134788
Cu1   Cu    Cu3+1 0.509250 0.507730 0.615930 0.916384
Cu2   Cu    Cu3+1 0.490750 0.492270 0.384070 0.916376
H1    H     H_    0.082713 0.584706 0.128061 0.097621
H2    H     H_    0.526849 0.187661 0.651721 0.113780
H3    H     H_    0.535487 0.843047 0.722938 0.130006
H4    H     H_    0.464564 0.156950 0.277063 0.130028
H5    H     H_    0.459814 0.966894 0.258295 0.098980
H6    H     H_    0.540248 0.033103 0.741709 0.098885
H7    H     H_    0.384408 0.405969 0.788360 0.146143
H8    H     H_    0.615712 0.593910 0.211649 0.146120
H9    H     H_    0.659219 0.638397 0.809383 0.136878
H10   H     H_    0.340684 0.361674 0.190599 0.136932
H11   H     H_    0.442917 0.231512 0.857165 0.093755
H12   H     H_    0.917314 0.415523 0.872014 0.097570
H13   H     H_    0.299868 0.094949 0.750360 0.115110
H14   H     H_    0.077448 0.098215 0.792025 0.107487
H15   H     H_    0.997730 0.238555 0.941692 0.099137
H16   H     H_    0.138786 0.376582 0.047895 0.105550
H17   H     H_    0.860989 0.623905 0.951410 0.105668
H18   H     H_    0.002126 0.761790 0.057733 0.099195
H19   H     H_    0.922782 0.901533 0.208286 0.107500
H20   H     H_    0.700583 0.904442 0.250583 0.115185
H21   H     H_    0.557392 0.768138 0.143507 0.093740
H22   H     H_    0.206542 0.578910 0.743879 0.140962
H23   H     H_    0.793477 0.421276 0.256106 0.140989
H24   H     H_    0.114105 0.516334 0.904459 0.102467
H25   H     H_    0.885892 0.483955 0.095587 0.102558
H26   H     H_    0.809065 0.385952 0.680131 0.135493
H27   H     H_    0.190995 0.614151 0.319925 0.135470
H28   H     H_    0.473129 0.812342 0.348293 0.113719
N1    N     N_R   0.523180 0.519350 0.790130 -0.250892
N2    N     N_R   0.476820 0.480650 0.209870 -0.250894
O1    O     O_R   0.506570 0.354460 0.582000 -0.512896
O2    O     O_R   0.493430 0.645540 0.418000 -0.512910
O3    O     O_R   0.490940 0.341410 0.386200 -0.508871
O4    O     O_R   0.509060 0.658590 0.613800 -0.508909
O5    O     O_R   0.327470 0.506520 0.597900 -0.508889
O6    O     O_R   0.672530 0.493480 0.402100 -0.508938
O7    O     O_R   0.311840 0.493460 0.402100 -0.505675
O8    O     O_R   0.688160 0.506540 0.597900 -0.505688

loop_
_geom_bond_atom_site_label_1
_geom_bond_atom_site_label_2
_ccdc_geom_bond_type
C41   C42   A    
C35   C36   A    
C16   H22   S    
C22   H26   S    
C12   C23   S    
Cu1   O4    S    
C36   C37   A    
C19   C21   A    
C24   C26   A    
C14   O7    A    
C8    H9    S    
C38   C39   A    
C1    O1    A    
C3    C48   A    
C42   H20   S    
C12   O4    A    
C9    H8    S    
Cu1   O1    S    
C17   C19   A    
C45   H6    S    
C22   C25   A    
C1    C34   S    
C8    N1    A    
C6    C38   S    
C35   H14   S    
C34   C46   A    
C5    C13   A    
C47   H3    S    
C16   C27   A    
C18   H24   S    
C27   C30   A    
C17   H23   S    
Cu1   O8    S    
C14   C30   S    
C44   C46   A    
Cu2   O3    S    
C15   C29   S    
C45   C47   A    
C25   C29   A    
C23   C47   A    
Cu1   O5    S    
C10   H7    S    
C6    C11   A    
C5    C7    A    
C36   H15   S    
C6    C8    A    
C4    C44   A    
C3    C45   A    
C31   C37   A    
C9    N2    A    
C2    C4    A    
C2    H28   S    
C31   C32   A    
C33   H13   S    
C37   H16   S    
C46   H4    S    
C12   O2    A    
C9    C11   A    
Cu2   O7    S    
C15   O6    A    
C40   C41   A    
C20   C22   A    
C26   C30   A    
C1    O3    A    
C42   C43   A    
C3    C4    A    
C7    H10   S    
C21   H1    S    
Cu2   O2    S    
C41   H19   S    
C28   C29   A    
C43   H21   S    
C17   C28   A    
C39   H17   S    
C14   O5    A    
C10   C13   A    
Cu2   N2    S    
C32   H11   S    
C10   N1    A    
C25   C27   A    
C26   C28   A    
C32   C33   A    
C19   H25   S    
C38   C43   A    
C11   C13   A    
C44   H5    S    
C33   C35   A    
C18   C20   A    
C20   H12   S    
Cu2   O6    S    
C39   C40   A    
Cu1   N1    S    
C24   H27   S    
C48   H2    S    
C34   C48   A    
C16   C18   A    
Cu1   Cu2   S    
C40   H18   S    
C21   C24   A    
C2    C23   A    
C15   O8    A    
C7    N2    A    
C5    C31   S    
