data_str_m2_o1_o18_f0_pcu.sym.29
_audit_creation_date              2012-10-26T20:21:14-0400
_audit_creation_method            fapswitch 2.2
_symmetry_space_group_name_H-M    P1
_symmetry_Int_Tables_number       1
_space_group_crystal_system       triclinic
_cell_length_a                    9.538333
_cell_length_b                    10.899196
_cell_length_c                    15.499163
_cell_angle_alpha                 89.837242
_cell_angle_beta                  74.396574
_cell_angle_gamma                 90.104619
_cell_volume                      1551.90170417

loop_
_atom_site_label
_atom_site_type_symbol
_atom_type_description
_atom_site_fract_x
_atom_site_fract_y
_atom_site_fract_z
_atom_type_partial_charge
C1    C     C_R   0.999594 0.261781 0.500483 0.581490
C2    C     C_R   0.132335 0.062121 0.481179 0.224498
C3    C     C_R   0.999775 0.871006 0.499942 -0.056455
C4    C     C_R   0.999157 0.126980 0.500784 -0.067348
C5    C     C_R   0.543343 0.450661 0.570012 0.009732
C6    C     C_R   0.457055 0.546994 0.429220 -0.000862
C7    C     C_R   0.394727 0.451450 0.570245 -0.001220
C8    C     C_R   0.605351 0.548107 0.429615 -0.019160
C9    C     C_R   0.918232 0.499657 0.672104 0.547729
C10   C     C_R   0.081778 0.501812 0.327962 0.547732
C11   C     C_R   0.873245 0.497777 0.770365 0.005786
C12   C     C_R   0.000117 0.737547 0.499842 0.607131
C13   C     C_R   0.127457 0.514883 0.230236 0.006450
C14   C     C_R   0.924617 0.462539 0.912734 -0.140404
C15   C     C_R   0.082838 0.582937 0.091600 -0.141533
C16   C     C_R   0.972551 0.471676 0.819859 -0.139905
C17   C     C_R   0.031629 0.557876 0.182816 -0.138355
C18   C     C_R   0.726911 0.518411 0.814685 -0.123125
C19   C     C_R   0.273508 0.494603 0.185441 -0.125110
C20   C     C_R   0.676221 0.512942 0.908555 0.034665
C21   C     C_R   0.329398 0.523974 0.094297 0.035978
C22   C     C_R   0.777519 0.481757 0.957282 0.050560
C23   C     C_R   0.585606 0.483415 0.095066 -0.134326
C24   C     C_R   0.230441 0.566292 0.047064 0.050320
C25   C     C_R   0.527398 0.533577 0.954904 0.034648
C26   C     C_R   0.480145 0.512482 0.049042 0.036468
C27   C     C_3   0.705728 0.138319 0.449488 -0.092131
C28   C     C_3   0.365989 0.865908 0.449389 -0.071612
C29   C     C_3   0.638669 0.856799 0.542469 -0.065702
C30   C     C_3   0.288900 0.130949 0.556870 -0.107946
C31   C     C_R   0.424804 0.576326 0.910593 -0.136900
C32   C     C_R   0.731151 0.468935 0.049879 -0.137491
C33   C     C_R   0.279673 0.592870 0.956118 -0.137586
C34   C     C_R   0.865944 0.061321 0.520449 0.222495
C35   C     C_R   0.131487 0.935169 0.468068 0.220436
C36   C     C_R   0.867644 0.934122 0.532029 0.223669
Cu1   Cu    Cu3+1 0.140660 0.500020 0.500000 0.967774
Cu2   Cu    Cu3+1 0.859340 0.499980 0.500000 0.957883
H1    H     H_    0.807776 0.445910 0.087856 0.109537
H2    H     H_    0.685639 0.587588 0.373373 0.102567
H3    H     H_    0.918328 0.574993 0.216524 0.117033
H4    H     H_    0.086201 0.455029 0.786763 0.118212
H5    H     H_    0.002294 0.438500 0.949676 0.114019
H6    H     H_    0.007522 0.617679 0.056130 0.112846
H7    H     H_    0.802441 0.170971 0.396447 0.120565
H8    H     H_    0.620877 0.209558 0.456049 0.155269
H9    H     H_    0.665141 0.052756 0.426166 0.083283
H10   H     H_    0.440278 0.794262 0.412907 0.105858
H11   H     H_    0.330081 0.837895 0.521170 0.101462
H12   H     H_    0.205200 0.626559 0.919591 0.111802
H13   H     H_    0.431552 0.951145 0.439637 0.148982
H14   H     H_    0.576414 0.772722 0.569641 0.134975
H15   H     H_    0.681982 0.843395 0.468783 0.087138
H16   H     H_    0.561132 0.934442 0.557659 0.136045
H17   H     H_    0.199938 0.179955 0.605812 0.122751
H18   H     H_    0.390231 0.183651 0.550947 0.142308
H19   H     H_    0.303133 0.039189 0.584615 0.083691
H20   H     H_    0.341112 0.455290 0.223721 0.120947
H21   H     H_    0.653802 0.535023 0.773917 0.120541
H22   H     H_    0.560504 0.473939 0.166747 0.099286
H23   H     H_    0.453345 0.601672 0.840858 0.105692
H24   H     H_    0.573861 0.409922 0.625970 0.128188
H25   H     H_    0.427041 0.584795 0.372189 0.123149
H26   H     H_    0.314396 0.411983 0.626473 0.096679
N1    N     N_R   0.352080 0.500030 0.499980 -0.222025
N2    N     N_R   0.647920 0.499970 0.500020 -0.230092
O1    O     O_R   0.118740 0.319660 0.500000 -0.461569
O2    O     O_3   0.249295 0.876870 0.410461 -0.530011
O3    O     O_3   0.748157 0.873694 0.586803 -0.525737
O4    O     O_3   0.263330 0.122429 0.471126 -0.535471
O5    O     O_R   0.881260 0.680340 0.500000 -0.479220
O6    O     O_R   0.881170 0.319630 0.500010 -0.468582
O7    O     O_R   0.118830 0.680370 0.499990 -0.477188
O8    O     O_R   0.055570 0.500030 0.629830 -0.523666
O9    O     O_R   0.944430 0.499970 0.370170 -0.522845
O10   O     O_R   0.818000 0.500000 0.629840 -0.508533
O11   O     O_R   0.182000 0.500000 0.370160 -0.505246
O12   O     O_3   0.734015 0.121033 0.533972 -0.540914

loop_
_geom_bond_atom_site_label_1
_geom_bond_atom_site_label_2
_ccdc_geom_bond_type
C2    C35   A    
C25   C31   A    
C21   C26   A    
C11   C18   A    
C8    N2    A    
C31   H23   S    
Cu1   O8    S    
C27   O12   S    
Cu2   O6    S    
Cu2   O10   S    
C22   C32   A    
C3    C36   A    
C28   O2    S    
C15   H6    S    
C28   H13   S    
C23   C26   A    
C29   H16   S    
C30   H19   S    
C10   O9    A    
C32   H1    S    
C3    C12   S    
C6    N1    A    
Cu2   N2    S    
Cu1   N1    S    
C31   C33   A    
C9    O10   A    
C18   C20   A    
C27   H7    S    
C12   O7    A    
C30   O4    S    
C10   O11   A    
C29   O3    S    
Cu2   O9    S    
C19   H20   S    
C23   H22   S    
C4    C34   A    
C1    O6    A    
C13   C19   A    
C5    C7    A    
C6    C8    A    
C25   C26   A    
C30   H18   S    
C29   H15   S    
C6    H25   S    
C2    C4    A    
Cu1   Cu2   S    
C7    N1    A    
C28   H11   S    
C3    C35   A    
C9    C11   S    
C27   H8    S    
C15   C24   A    
C12   O5    A    
C20   C22   A    
C14   C16   A    
C9    O8    A    
C16   H4    S    
C36   O3    S    
C27   H9    S    
C15   C17   A    
Cu1   O7    S    
Cu2   O5    S    
C28   H10   S    
C19   C21   A    
C5    N2    A    
C10   C13   S    
C30   H17   S    
C24   C33   A    
C13   C17   A    
C1    C4    S    
C23   C32   A    
C14   C22   A    
C33   H12   S    
C34   O12   S    
Cu1   O11   S    
C35   O2    S    
Cu1   O1    S    
C1    O1    A    
C5    H24   S    
C34   C36   A    
C17   H3    S    
C7    H26   S    
C11   C16   A    
C18   H21   S    
C20   C25   A    
C21   C24   A    
C8    H2    S    
C2    O4    S    
C14   H5    S    
C29   H14   S    
