data_str_m2_o10_o29_f0_pcu.sym.19
_audit_creation_date              2012-10-26T20:17:36-0400
_audit_creation_method            fapswitch 2.2
_symmetry_space_group_name_H-M    P1
_symmetry_Int_Tables_number       1
_space_group_crystal_system       triclinic
_cell_length_a                    27.822629
_cell_length_b                    8.674478
_cell_length_c                    7.427745
_cell_angle_alpha                 103.046452
_cell_angle_beta                  93.599524
_cell_angle_gamma                 92.517193
_cell_volume                      1739.82997342

loop_
_atom_site_label
_atom_site_type_symbol
_atom_type_description
_atom_site_fract_x
_atom_site_fract_y
_atom_site_fract_z
_atom_type_partial_charge
Br1   Br    Br    0.360963 0.358861 0.835919 -0.504517
Br2   Br    Br    0.639038 0.640993 0.163971 -0.504562
C1    C     C_R   0.498541 0.199624 0.453147 0.553804
C2    C     C_R   0.869995 0.353981 0.461598 0.025390
C3    C     C_R   0.354650 0.499542 0.509378 0.020864
C4    C     C_R   0.645351 0.500454 0.490623 0.020858
C5    C     C_R   0.971982 0.352897 0.460722 0.018816
C6    C     C_R   0.028019 0.647100 0.539303 0.018816
C7    C     C_R   0.976893 0.646254 0.539603 0.019276
C8    C     C_R   0.023108 0.353742 0.460425 0.019276
C9    C     C_R   0.949214 0.499159 0.500198 0.034981
C10   C     C_R   0.050786 0.500837 0.499828 0.034980
C11   C     C_R   0.942490 0.210236 0.422745 -0.145953
C12   C     C_R   0.501458 0.800376 0.546853 0.553795
C13   C     C_R   0.057511 0.789760 0.577273 -0.145952
C14   C     C_R   0.892649 0.211188 0.423363 -0.111188
C15   C     C_R   0.107352 0.788809 0.576655 -0.111187
C16   C     C_R   0.407491 0.497966 0.503201 0.573572
C17   C     C_R   0.592509 0.502032 0.496798 0.573568
C18   C     C_R   0.047835 0.211969 0.421785 -0.145848
C19   C     C_R   0.952166 0.788027 0.578250 -0.145850
C20   C     C_2   0.497859 0.031667 0.426750 -0.128533
C21   C     C_2   0.502141 0.968333 0.573250 -0.128531
C22   C     C_R   0.175676 0.361595 0.463093 0.403402
C23   C     C_R   0.101935 0.501678 0.499897 -0.026528
C24   C     C_R   0.824325 0.638402 0.536924 0.403405
C25   C     C_R   0.180429 0.644221 0.538850 0.404471
C26   C     C_R   0.819571 0.355776 0.461171 0.404472
C27   C     C_R   0.278001 0.555722 0.368940 -0.050302
C28   C     C_R   0.722001 0.444333 0.631109 -0.050302
C29   C     C_R   0.328020 0.553463 0.370745 -0.140575
C30   C     C_R   0.671982 0.446590 0.629297 -0.140571
C31   C     C_R   0.329871 0.446782 0.647222 0.137501
C32   C     C_R   0.670130 0.553156 0.352741 0.137509
C33   C     C_R   0.279713 0.450089 0.644156 -0.016219
C34   C     C_R   0.898066 0.498319 0.500127 -0.026528
C35   C     C_R   0.720288 0.549851 0.355813 -0.016217
C36   C     C_R   0.253717 0.503896 0.505470 0.202915
C37   C     C_R   0.746284 0.496101 0.494543 0.202929
C38   C     C_R   0.125184 0.358175 0.461627 0.025005
C39   C     C_R   0.874816 0.641822 0.538396 0.025002
C40   C     C_R   0.097740 0.214553 0.422619 -0.114965
C41   C     C_R   0.902261 0.785444 0.577411 -0.114968
C42   C     C_R   0.130005 0.646016 0.538424 0.025392
Cu1   Cu    Cu3+1 0.505380 0.517380 0.684380 1.039032
Cu2   Cu    Cu3+1 0.494620 0.482620 0.315620 1.039032
H1    H     H_    0.465050 0.369933 0.947607 0.272873
H2    H     H_    0.258031 0.596830 0.260710 0.154297
H3    H     H_    0.871861 0.098570 0.392994 0.173727
H4    H     H_    0.128139 0.901427 0.607019 0.173725
H5    H     H_    0.956467 0.094395 0.391255 0.106054
H6    H     H_    0.043533 0.905601 0.608755 0.106051
H7    H     H_    0.029946 0.095618 0.389712 0.104537
H8    H     H_    0.970055 0.904377 0.610332 0.104541
H9    H     H_    0.493841 0.959827 0.285666 0.141892
H10   H     H_    0.506159 0.040173 0.714334 0.141897
H11   H     H_    0.534950 0.630068 0.052393 0.272872
H12   H     H_    0.260643 0.409013 0.748853 0.164178
H13   H     H_    0.739358 0.590881 0.251088 0.164151
H14   H     H_    0.114756 0.102539 0.392130 0.165594
H15   H     H_    0.885245 0.897457 0.607904 0.165595
H16   H     H_    0.654052 0.405334 0.736486 0.171891
H17   H     H_    0.345951 0.594762 0.263586 0.171840
H18   H     H_    0.741971 0.403269 0.739371 0.154282
N1    N     N_R   0.202147 0.503295 0.501876 -0.402594
N2    N     N_R   0.797854 0.496703 0.498142 -0.402598
N3    N     N_2   0.486510 0.456430 0.038510 -0.242486
N4    N     N_2   0.513490 0.543570 0.961490 -0.242480
O1    O     O_R   0.503500 0.286120 0.619780 -0.510331
O2    O     O_2   0.801828 0.775529 0.574967 -0.462401
O3    O     O_2   0.792405 0.217913 0.422404 -0.460109
O4    O     O_2   0.207595 0.782086 0.577623 -0.460117
O5    O     O_R   0.496500 0.713880 0.380220 -0.510342
O6    O     O_R   0.494410 0.256780 0.308360 -0.495505
O7    O     O_R   0.505590 0.743220 0.691640 -0.495509
O8    O     O_R   0.434810 0.514700 0.655690 -0.467878
O9    O     O_R   0.565190 0.485300 0.344310 -0.467867
O10   O     O_R   0.425720 0.485350 0.344280 -0.488072
O11   O     O_R   0.574280 0.514650 0.655720 -0.488069
O12   O     O_2   0.198172 0.224467 0.425040 -0.462412

loop_
_geom_bond_atom_site_label_1
_geom_bond_atom_site_label_2
_ccdc_geom_bond_type
C5    C8    A    
C4    C30   A    
C2    C34   A    
C28   H18   S    
C32   C35   A    
Br1   C31   S    
C21   H10   S    
Cu1   Cu2   S    
C5    C9    A    
C4    C17   S    
C33   H12   S    
C9    C34   A    
C1    O1    A    
C23   C38   A    
C19   H8    S    
C17   O9    A    
C1    O6    A    
C22   C38   A    
C19   C41   A    
C25   C42   A    
C22   O12   S    
C8    C18   A    
C6    C7    A    
C3    C31   A    
C27   C36   A    
C16   O10   A    
Br2   C32   S    
C38   C40   A    
C11   H5    S    
C39   C41   A    
C34   C39   A    
C23   C42   A    
H1    N3    S    
C2    C26   A    
C27   H2    S    
Cu1   O1    S    
N3    N4    D    
C24   N2    A    
C12   O5    A    
C29   H17   S    
C33   C36   A    
C14   H3    S    
C40   H14   S    
Cu2   O10   S    
C3    C16   S    
C4    C32   A    
C12   C21   S    
C2    C14   A    
C26   N2    A    
C25   N1    A    
C36   N1    S    
C6    C10   A    
Cu1   N4    S    
Cu1   O11   S    
C13   H6    S    
C17   O11   A    
C7    C9    A    
C35   H13   S    
C8    C10   A    
C22   N1    A    
C6    C13   A    
Cu1   O8    S    
C24   O2    S    
C37   N2    S    
C26   O3    S    
H11   N4    S    
Cu2   O6    S    
C41   H15   S    
C13   C15   A    
C16   O8    A    
C18   H7    S    
C15   H4    S    
Cu2   O9    S    
C18   C40   A    
C20   H9    S    
C10   C23   A    
Cu1   O7    S    
C12   O7    A    
C15   C42   A    
C30   H16   S    
Cu2   N3    S    
C35   C37   A    
C28   C30   A    
C7    C19   A    
C31   C33   A    
C28   C37   A    
C5    C11   A    
C27   C29   A    
C11   C14   A    
C20   C21   D    
C1    C20   S    
Cu2   O5    S    
C25   O4    S    
C24   C39   A    
C3    C29   A    
