data_str_m2_o14_o16_f0_pcu.sym.210
_audit_creation_date              2012-12-10T17:18:57-0500
_audit_creation_method            fapswitch 2.2
_symmetry_space_group_name_H-M    P1
_symmetry_Int_Tables_number       1
_space_group_crystal_system       triclinic
_cell_length_a                    9.576313
_cell_length_b                    10.811854
_cell_length_c                    13.416148
_cell_angle_alpha                 92.436663
_cell_angle_beta                  72.149895
_cell_angle_gamma                 88.260529
_cell_volume                      1319.63827594

loop_
_atom_site_label
_atom_site_type_symbol
_atom_type_description
_atom_site_fract_x
_atom_site_fract_y
_atom_site_fract_z
_atom_type_partial_charge
C1    C     C_R   0.493122 0.738301 0.510573 0.804876
C2    C     C_R   0.433998 0.491849 0.979030 0.070019
C3    C     C_R   0.467775 0.455995 0.871200 0.092460
C4    C     C_R   0.541744 0.471972 0.030553 0.019184
C5    C     C_R   0.664960 0.390489 0.980433 0.139684
C6    C     C_R   0.687493 0.342577 0.878247 -0.239083
C7    C     C_R   0.592359 0.377027 0.823436 -0.206704
C8    C     C_R   0.534478 0.533029 0.128275 0.098695
C9    C     C_R   0.740426 0.399731 0.136089 -0.258505
C10   C     C_R   0.372340 0.496324 0.815386 -0.104853
C11   C     C_R   0.208387 0.890502 0.609671 -0.165982
C12   C     C_R   0.421125 0.496203 0.700126 0.761785
C13   C     C_R   0.078470 0.962533 0.649279 -0.156296
C14   C     C_R   0.082486 0.090466 0.657038 -0.150557
C15   C     C_R   0.216292 0.146942 0.624319 -0.148617
C16   C     C_R   0.349609 0.076499 0.577331 0.074062
C17   C     C_R   0.345844 0.945085 0.570902 0.103257
C18   C     C_R   0.480874 0.873874 0.532575 -0.175807
C19   C     C_R   0.611379 0.932069 0.525670 -0.223946
C20   C     C_R   0.615745 0.059725 0.538228 0.148289
C21   C     C_R   0.487525 0.133267 0.544570 -0.182332
C22   C     C_R   0.923898 0.347392 0.351250 -0.156301
C23   C     C_R   0.495702 0.264381 0.515319 0.782527
C24   C     C_R   0.030936 0.277650 0.273950 -0.236821
C25   C     C_R   0.174421 0.274759 0.274952 -0.202459
C26   C     C_R   0.211859 0.343212 0.352082 -0.143433
C27   C     C_R   0.108647 0.424319 0.426564 0.197326
C28   C     C_R   0.959074 0.425218 0.426383 0.206192
C29   C     C_R   0.892886 0.569782 0.571358 -0.060303
C30   C     C_R   0.040598 0.568855 0.571870 -0.078649
C31   C     C_R   0.578496 0.501797 0.299849 0.824573
C32   C     C_R   0.764797 0.357436 0.032912 -0.201056
C33   C     C_R   0.623559 0.484262 0.185405 -0.074649
C34   C     C_R   0.232533 0.548253 0.870980 -0.192688
C35   C     C_R   0.190127 0.564591 0.979573 -0.154416
C36   C     C_R   0.290100 0.538072 0.033076 -0.180392
Cu1   Cu    Cu3+1 0.359340 0.500010 0.500010 0.907113
Cu2   Cu    Cu3+1 0.640660 0.499990 0.499990 0.917201
H1    H     H_    0.811015 0.363573 0.178121 0.154757
H2    H     H_    0.198232 0.792834 0.617064 0.153294
H3    H     H_    0.974750 0.918499 0.678421 0.123658
H4    H     H_    0.982067 0.146066 0.692317 0.124190
H5    H     H_    0.213440 0.245245 0.643001 0.165223
H6    H     H_    0.810559 0.627020 0.629846 0.138750
H7    H     H_    0.814540 0.332435 0.352073 0.203069
H8    H     H_    0.000741 0.219925 0.216563 0.147481
H9    H     H_    0.256550 0.215651 0.217805 0.155024
H10   H     H_    0.322393 0.326431 0.350413 0.203970
H11   H     H_    0.780527 0.279573 0.839825 0.133365
H12   H     H_    0.067605 0.623041 0.632211 0.116823
H13   H     H_    0.857733 0.293773 0.995891 0.142619
H14   H     H_    0.156263 0.577419 0.830399 0.148685
H15   H     H_    0.251703 0.549216 0.117086 0.167429
H16   H     H_    0.080491 0.600945 0.022320 0.148531
H17   H     H_    0.613544 0.335494 0.745259 0.155372
H18   H     H_    0.712331 0.877134 0.513096 0.179754
N1    N     N_R   0.852480 0.498790 0.499000 -0.200718
N2    N     N_R   0.148360 0.498710 0.498970 -0.198441
O1    O     O_R   0.381190 0.680360 0.500010 -0.592161
O2    O     O_R   0.618760 0.680340 0.500000 -0.574633
O3    O     O_R   0.323240 0.499990 0.650990 -0.592558
O4    O     O_R   0.560820 0.499960 0.650980 -0.585429
O5    O     O_R   0.381240 0.319660 0.500000 -0.603715
O6    O     O_R   0.618810 0.319640 0.499990 -0.599023
O7    O     O_R   0.439180 0.500040 0.349020 -0.585269
O8    O     O_R   0.676760 0.500010 0.349010 -0.594448
C37   C     C_3   0.754297 0.107492 0.556289 -0.394761
C38   C     C_3   0.889154 0.081508 0.460337 -0.788431
H19   H     H_    0.928038 0.982906 0.454541 0.236176
H20   H     H_    0.862353 0.101584 0.387756 0.253051
H21   H     H_    0.979857 0.139309 0.467375 0.259452
H22   H     H_    0.745655 0.206061 0.583150 0.221415
H23   H     H_    0.773123 0.058511 0.622569 0.180277
C39   C     C_3   0.479489 0.668923 0.151123 -0.434820
C40   C     C_3   0.343604 0.695882 0.246964 -0.768082
H24   H     H_    0.274725 0.772710 0.231486 0.221702
H25   H     H_    0.275080 0.614371 0.267404 0.260344
H26   H     H_    0.377636 0.726760 0.315491 0.265533
H27   H     H_    0.570189 0.724407 0.161966 0.191821
H28   H     H_    0.457444 0.706911 0.081517 0.207332

loop_
_geom_bond_atom_site_label_1
_geom_bond_atom_site_label_2
_ccdc_geom_bond_type
C19   H18   S    
C31   O8    A    
C16   C21   A    
C20   C37   S    
C35   C36   A    
C7    H17   S    
C4    C8    A    
C13   H3    S    
C28   N1    A    
C1    C18   S    
Cu1   Cu2   S    
C37   H22   S    
C3    C7    A    
C1    O1    A    
C5    C6    A    
C15   C16   A    
C9    H1    S    
C34   C35   A    
C36   H15   S    
C9    C32   A    
Cu2   O8    S    
C38   H19   S    
Cu1   O7    S    
C31   C33   S    
C37   H23   S    
C25   H9    S    
Cu1   N2    S    
C26   H10   S    
C14   H4    S    
C5    C32   A    
C23   O5    A    
C30   H12   S    
C39   H28   S    
C13   C14   A    
C35   H16   S    
C9    C33   A    
Cu1   O5    S    
Cu2   O6    S    
C39   C40   S    
C37   C38   S    
C24   C25   A    
C1    O2    A    
C18   C19   A    
C25   C26   A    
C2    C4    A    
C40   H24   S    
C32   H13   S    
C29   C30   A    
Cu2   N1    S    
C12   O4    A    
C8    C39   S    
C17   C18   A    
C26   C27   A    
C10   C34   A    
C40   H25   S    
Cu1   O1    S    
C10   C12   S    
Cu2   O2    S    
C23   O6    A    
C29   N1    A    
C39   H27   S    
C21   C23   S    
C29   H6    S    
C22   C24   A    
C2    C36   A    
C31   O7    A    
C11   C17   A    
C4    C5    A    
C27   N2    A    
Cu1   O3    S    
C6    C7    A    
C34   H14   S    
C24   H8    S    
C19   C20   A    
C2    C3    A    
C15   H5    S    
C3    C10   A    
C12   O3    A    
C11   C13   A    
C16   C17   A    
C38   H21   S    
C30   N2    A    
C8    C33   A    
C6    H11   S    
C11   H2    S    
C40   H26   S    
C22   H7    S    
C20   C21   A    
C38   H20   S    
C27   C28   A    
C14   C15   A    
C22   C28   A    
Cu2   O4    S    
