data_str_m2_o10_o18_f0_pcu.sym.44
_audit_creation_date              2012-10-26T19:59:12-0400
_audit_creation_method            fapswitch 2.2
_symmetry_space_group_name_H-M    P1
_symmetry_Int_Tables_number       1
_space_group_crystal_system       triclinic
_cell_length_a                    7.41946
_cell_length_b                    8.747258
_cell_length_c                    15.826986
_cell_angle_alpha                 94.103367
_cell_angle_beta                  75.123872
_cell_angle_gamma                 102.456577
_cell_volume                      969.230889739

loop_
_atom_site_label
_atom_site_type_symbol
_atom_type_description
_atom_site_fract_x
_atom_site_fract_y
_atom_site_fract_z
_atom_type_partial_charge
C1    C     C_R   0.540888 0.798969 0.505370 0.567507
C2    C     C_R   0.615953 0.512187 0.333804 0.540289
C3    C     C_R   0.314082 0.475778 0.761631 -0.008691
C4    C     C_R   0.685882 0.534153 0.239102 -0.009198
C5    C     C_R   0.068984 0.380056 0.890095 -0.131668
C6    C     C_R   0.920488 0.658401 0.114553 -0.132611
C7    C     C_R   0.124428 0.408946 0.800757 -0.143401
C8    C     C_R   0.869585 0.617413 0.202215 -0.144905
C9    C     C_R   0.444864 0.521029 0.813275 -0.138871
C10   C     C_R   0.556889 0.486316 0.186888 -0.136955
C11   C     C_R   0.392209 0.495757 0.903835 0.026906
C12   C     C_R   0.459131 0.201031 0.494607 0.567634
C13   C     C_R   0.601744 0.530925 0.099109 0.026340
C14   C     C_R   0.201818 0.419910 0.941371 0.046411
C15   C     C_R   0.787917 0.617460 0.063171 0.044725
C16   C     C_R   0.524497 0.538574 0.957277 0.026524
C17   C     C_R   0.466754 0.494412 0.046733 0.027406
C18   C     C_3   0.640940 0.038327 0.592923 -0.377726
C19   C     C_3   0.359167 0.961671 0.407018 -0.377943
C20   C     C_R   0.275072 0.418232 0.081152 -0.143179
C21   C     C_R   0.711532 0.625948 0.924626 -0.143766
C22   C     C_R   0.145890 0.382683 0.029434 -0.132360
C23   C     C_R   0.839717 0.664482 0.976725 -0.132192
C24   C     C_2   0.546623 0.962903 0.521146 -0.028825
C25   C     C_2   0.453426 0.037095 0.478815 -0.028903
C26   C     C_R   0.384116 0.488894 0.666285 0.540563
Cu1   Cu    Cu3+1 0.322120 0.483240 0.490330 0.929664
Cu2   Cu    Cu3+1 0.677880 0.516760 0.509670 0.928708
H1    H     H_    0.000438 0.325031 0.058820 0.119193
H2    H     H_    0.763472 0.670532 0.859315 0.103004
H3    H     H_    0.004357 0.615070 0.568279 0.239310
H4    H     H_    0.995641 0.384926 0.431724 0.239500
H5    H     H_    0.670713 0.949239 0.631252 0.125566
H6    H     H_    0.779271 0.116761 0.564135 0.166771
H7    H     H_    0.545750 0.104554 0.640023 0.134933
H8    H     H_    0.329398 0.050761 0.368690 0.125051
H9    H     H_    0.454393 0.895459 0.359922 0.135687
H10   H     H_    0.220838 0.883216 0.435785 0.166739
H11   H     H_    0.981215 0.731811 0.948876 0.116945
H12   H     H_    0.420831 0.416042 0.217487 0.115956
H13   H     H_    0.589384 0.570451 0.780222 0.119943
H14   H     H_    0.971153 0.655522 0.241701 0.130980
H15   H     H_    0.021144 0.373524 0.761923 0.130785
H16   H     H_    0.922645 0.324103 0.918971 0.118861
H17   H     H_    0.062801 0.724608 0.087189 0.118538
H18   H     H_    0.217295 0.386625 0.148618 0.105107
N1    N     N_2   0.945180 0.542040 0.524240 -0.262993
N2    N     N_2   0.054820 0.457960 0.475760 -0.262734
O1    O     O_R   0.384450 0.714270 0.493720 -0.511231
O2    O     O_R   0.615550 0.285730 0.506280 -0.511205
O3    O     O_R   0.684880 0.742590 0.510050 -0.500043
O4    O     O_R   0.315120 0.257410 0.489950 -0.499852
O5    O     O_R   0.265540 0.477900 0.617090 -0.505215
O6    O     O_R   0.734460 0.522100 0.382910 -0.505537
O7    O     O_R   0.565970 0.506210 0.633420 -0.508616
O8    O     O_R   0.434030 0.493790 0.366580 -0.506924

loop_
_geom_bond_atom_site_label_1
_geom_bond_atom_site_label_2
_ccdc_geom_bond_type
Cu1   N2    S    
C2    C4    S    
Cu1   O5    S    
Cu2   N1    S    
C16   C21   A    
C3    C9    A    
C6    H17   S    
C7    H15   S    
C1    O3    A    
C21   H2    S    
C9    H13   S    
N1    N2    D    
C13   C17   A    
C12   C25   S    
C4    C8    A    
C26   O7    A    
C14   C22   A    
C15   C23   A    
C6    C15   A    
H3    N1    S    
C24   C25   D    
C18   H6    S    
C9    C11   A    
C5    C14   A    
H4    N2    S    
C1    O1    A    
C23   H11   S    
C6    C8    A    
C22   H1    S    
C5    H16   S    
C20   C22   A    
C3    C7    A    
C19   H8    S    
C13   C15   A    
C21   C23   A    
C2    O6    A    
C19   C25   S    
C11   C14   A    
C18   C24   S    
C11   C16   A    
C18   H5    S    
C4    C10   A    
C26   O5    A    
C19   H10   S    
Cu1   O4    S    
C1    C24   S    
C10   H12   S    
C18   H7    S    
Cu1   Cu2   S    
C5    C7    A    
Cu2   O6    S    
Cu1   O8    S    
C16   C17   A    
C2    O8    A    
C19   H9    S    
C12   O4    A    
Cu2   O3    S    
Cu2   O2    S    
C17   C20   A    
Cu2   O7    S    
C3    C26   S    
C20   H18   S    
Cu1   O1    S    
C8    H14   S    
C12   O2    A    
C10   C13   A    
