data_str_m3_o4_o14_f0_pcu.sym.117
_audit_creation_date              2012-12-10T20:28:38-0500
_audit_creation_method            fapswitch 2.2
_symmetry_space_group_name_H-M    P1
_symmetry_Int_Tables_number       1
_space_group_crystal_system       triclinic
_cell_length_a                    10.757367
_cell_length_b                    10.666821
_cell_length_c                    9.84768
_cell_angle_alpha                 90.259302
_cell_angle_beta                  89.937459
_cell_angle_gamma                 87.995099
_cell_volume                      1129.28664766

loop_
_atom_site_label
_atom_site_type_symbol
_atom_type_description
_atom_site_fract_x
_atom_site_fract_y
_atom_site_fract_z
_atom_type_partial_charge
C1    C     C_R   0.505706 0.259738 0.499631 0.886495
C2    C     C_R   0.057773 0.614712 0.579697 0.043002
C3    C     C_R   0.126163 0.524391 0.498299 -0.082020
C4    C     C_R   0.065976 0.440794 0.413811 -0.223023
C5    C     C_R   0.939112 0.438233 0.413649 -0.206903
C6    C     C_R   0.870694 0.517380 0.500155 -0.058747
C7    C     C_R   0.555344 0.063395 0.617670 0.138112
C8    C     C_R   0.530312 0.128003 0.497645 -0.106252
C9    C     C_R   0.533135 0.063011 0.373537 -0.231610
C10   C     C_R   0.533414 0.933582 0.374136 -0.223400
C11   C     C_R   0.530144 0.870390 0.498811 -0.089995
C12   C     C_R   0.259649 0.507955 0.500184 0.888676
C13   C     C_R   0.554400 0.935399 0.618619 0.120750
C14   C     C_3   0.496695 0.933519 0.757101 -0.505113
C15   C     C_3   0.498573 0.075511 0.755715 -0.475400
C16   C     C_R   0.439361 0.409913 0.070945 0.214769
C17   C     C_R   0.568446 0.582138 0.072275 -0.126623
C18   C     C_R   0.568311 0.582129 0.928182 -0.132339
C19   C     C_R   0.439275 0.410004 0.928220 0.215202
C20   C     C_3   0.303403 0.387180 0.922677 -0.499779
C21   C     C_3   0.303587 0.386753 0.076792 -0.513463
C22   C     C_R   0.507906 0.739703 0.500096 0.863672
C23   C     C_R   0.739480 0.503964 0.500070 0.859015
C24   C     C_R   0.112032 0.714496 0.653214 0.114748
C25   C     C_R   0.043305 0.781358 0.754589 0.259079
C26   C     C_R   0.913245 0.774501 0.755421 0.222290
C27   C     C_R   0.856787 0.692777 0.665435 -0.269040
C28   C     C_R   0.927488 0.607116 0.583613 0.015549
H1    H     H_    0.117821 0.373770 0.350577 0.153646
H2    H     H_    0.558877 0.890305 0.834967 0.202451
H3    H     H_    0.404032 0.121078 0.754243 0.204373
H4    H     H_    0.563825 0.114415 0.831173 0.204119
H5    H     H_    0.621789 0.650076 0.126925 0.146653
H6    H     H_    0.621123 0.649848 0.873644 0.143779
H7    H     H_    0.248443 0.467533 0.879057 0.227155
H8    H     H_    0.283865 0.294264 0.877597 0.194643
H9    H     H_    0.248480 0.466683 0.121911 0.226625
H10   H     H_    0.284648 0.293478 0.120636 0.197083
H11   H     H_    0.756530 0.698008 0.661358 0.183244
H12   H     H_    0.894138 0.370510 0.349448 0.155326
H13   H     H_    0.524501 0.111088 0.277141 0.172087
H14   H     H_    0.525568 0.884816 0.277943 0.170911
H15   H     H_    0.401103 0.899726 0.758183 0.209714
N1    N     N_R   0.499160 0.499140 0.142800 -0.107549
N2    N     N_R   0.499160 0.499180 0.857150 -0.108023
O1    O     O_R   0.500020 0.316790 0.614690 -0.613949
O2    O     O_R   0.500000 0.316760 0.385350 -0.623686
O3    O     O_R   0.316770 0.500020 0.614690 -0.612578
O4    O     O_R   0.316760 0.499980 0.385350 -0.620264
O5    O     O_R   0.500000 0.683240 0.614650 -0.638188
O6    O     O_R   0.499980 0.683210 0.385310 -0.625492
O7    O     O_R   0.683240 0.500020 0.614650 -0.623156
O8    O     O_R   0.683230 0.499980 0.385310 -0.619659
Zn1   Zn    Zn3+2 0.500010 0.500020 0.653130 0.934554
Zn2   Zn    Zn3+2 0.499990 0.499980 0.346870 0.941537
C29   C     C_3   0.231299 0.768490 0.608761 -0.890582
H16   H     H_    0.224508 0.872676 0.610957 0.236708
H17   H     H_    0.301818 0.734870 0.681767 0.274145
H18   H     H_    0.254944 0.744190 0.502249 0.229402
C30   C     C_3   0.107529 0.863709 0.856879 -0.939874
H19   H     H_    0.209684 0.847757 0.858075 0.240060
H20   H     H_    0.086297 0.964149 0.834672 0.245256
H21   H     H_    0.075927 0.841259 0.961079 0.246828
C31   C     C_3   0.830401 0.857773 0.843989 -0.945067
H22   H     H_    0.881067 0.921468 0.911459 0.255179
H23   H     H_    0.770328 0.917951 0.778129 0.247441
H24   H     H_    0.771898 0.799307 0.909258 0.227493

loop_
_geom_bond_atom_site_label_1
_geom_bond_atom_site_label_2
_ccdc_geom_bond_type
C18   N2    A    
C12   O4    A    
C16   C21   S    
C25   C30   S    
C10   H14   S    
C1    C8    S    
C11   C13   A    
C9    C10   A    
C16   N1    A    
C11   C22   S    
C9    H13   S    
C19   C20   S    
C29   H18   S    
C12   O3    A    
C22   O5    A    
C31   H22   S    
O1    Zn1   S    
C7    C15   S    
C17   C18   A    
C23   O7    A    
C17   N1    A    
C1    O2    A    
C7    C8    A    
C13   C14   S    
C24   C25   A    
O3    Zn1   S    
C4    C5    A    
C18   H6    S    
N1    Zn2   S    
C31   H23   S    
C26   C27   A    
O5    Zn1   S    
C17   H5    S    
C14   H2    S    
C16   C19   A    
C6    C23   S    
C30   H20   S    
C29   H17   S    
N2    Zn1   S    
C23   O8    A    
C2    C3    A    
C30   H21   S    
C2    C24   A    
C5    C6    A    
C1    O1    A    
C22   O6    A    
C24   C29   S    
C10   C11   A    
O8    Zn2   S    
C19   N2    A    
C3    C4    A    
C20   H8    S    
C31   H24   S    
C7    C13   A    
C21   H9    S    
C20   C21   S    
O2    Zn2   S    
C5    H12   S    
C27   H11   S    
C27   C28   A    
C29   H16   S    
C26   C31   S    
C14   C15   S    
C8    C9    A    
C2    C28   A    
C3    C12   S    
O6    Zn2   S    
C25   C26   A    
O4    Zn2   S    
C20   H7    S    
C15   H3    S    
C30   H19   S    
C6    C28   A    
C21   H10   S    
C4    H1    S    
O7    Zn1   S    
C14   H15   S    
C15   H4    S    
