data_str_m3_o41_o41_f0_fof.sym.43
_audit_creation_date              2012-12-10T16:39:35-0500
_audit_creation_method            fapswitch 2.2
_symmetry_space_group_name_H-M    P1
_symmetry_Int_Tables_number       1
_space_group_crystal_system       triclinic
_cell_length_a                    16.874094
_cell_length_b                    16.874087
_cell_length_c                    16.705659
_cell_angle_alpha                 65.812263
_cell_angle_beta                  65.81226
_cell_angle_gamma                 65.916769
_cell_volume                      3789.6759606

loop_
_atom_site_label
_atom_site_type_symbol
_atom_type_description
_atom_site_fract_x
_atom_site_fract_y
_atom_site_fract_z
_atom_type_partial_charge
C1    C     C_R   0.325348 0.939920 0.462941 0.012505
C2    C     C_R   0.290896 0.424508 0.051928 0.024060
C3    C     C_R   0.516819 0.384859 0.075820 0.029269
C4    C     C_R   0.001328 0.455459 0.590695 0.027411
C5    C     C_R   0.953748 0.552517 0.426319 0.029174
C6    C     C_R   0.003010 0.685862 0.561172 0.010680
C7    C     C_R   0.939920 0.325348 0.462941 0.012504
C8    C     C_R   0.460741 0.957371 0.465554 -0.041462
C9    C     C_R   0.547623 0.996652 0.552092 -0.041142
C10   C     C_R   0.957370 0.460741 0.465554 -0.041462
C11   C     C_R   0.996651 0.547623 0.552093 -0.041141
C12   C     C_R   0.427609 0.427609 0.069328 -0.041694
C13   C     C_R   0.525189 0.525189 0.078816 -0.040460
C14   C     C_R   0.960394 0.179229 0.438701 0.957267
C15   C     C_R   0.685861 0.003011 0.561171 0.010682
C16   C     C_R   0.024599 0.822340 0.567615 0.932889
C17   C     C_R   0.162786 0.424684 0.006165 0.937237
C18   C     C_R   0.821007 0.563288 0.033873 0.905344
C19   C     C_R   0.438582 0.959602 0.179858 0.859267
C20   C     C_R   0.561501 0.038371 0.820279 0.933181
C21   C     C_R   0.563288 0.821007 0.033873 0.905344
C22   C     C_R   0.424684 0.162786 0.006165 0.937244
C23   C     C_R   0.038371 0.561501 0.820278 0.933185
C24   C     C_R   0.959602 0.438582 0.179859 0.859267
C25   C     C_R   0.822339 0.024600 0.567614 0.932885
C26   C     C_R   0.931581 0.461011 0.331351 0.033272
C27   C     C_R   0.179229 0.960394 0.438701 0.957264
C28   C     C_R   0.415872 0.942174 0.420165 0.062615
C29   C     C_R   0.591457 0.016390 0.595164 0.063980
C30   C     C_R   0.942174 0.415872 0.420166 0.062615
C31   C     C_R   0.016389 0.591458 0.595164 0.063981
C32   C     C_R   0.380931 0.380932 0.057724 0.071447
C33   C     C_R   0.576965 0.576965 0.073112 0.070708
C34   C     C_R   0.278336 0.934112 0.411880 -0.127532
C35   C     C_R   0.726819 0.031449 0.601346 -0.111123
C36   C     C_R   0.931518 0.410121 0.280901 -0.153443
C37   C     C_R   0.044266 0.541900 0.675336 0.037954
C38   C     C_R   0.057255 0.589845 0.720640 -0.173508
C39   C     C_R   0.378358 0.247260 0.034098 -0.160621
C40   C     C_R   0.595000 0.724131 0.044522 -0.150563
C41   C     C_R   0.589845 0.057255 0.720640 -0.173506
C42   C     C_R   0.410122 0.931518 0.280901 -0.153443
C43   C     C_R   0.724131 0.595000 0.044522 -0.150564
C44   C     C_R   0.247259 0.378357 0.034100 -0.160628
C45   C     C_R   0.031449 0.726819 0.601346 -0.111120
C46   C     C_R   0.934111 0.278336 0.411880 -0.127531
C47   C     C_R   0.447107 0.055565 0.708581 -0.219735
C48   C     C_R   0.424508 0.290896 0.051928 0.024056
C49   C     C_R   0.555834 0.918943 0.297436 -0.235470
C50   C     C_R   0.963818 0.734440 0.487159 -0.237388
C51   C     C_R   0.943600 0.285667 0.555303 -0.220334
C52   C     C_R   0.702978 0.440288 0.089409 -0.241649
C53   C     C_R   0.246242 0.510057 0.070069 -0.231899
C54   C     C_R   0.285667 0.943599 0.555303 -0.220335
C55   C     C_R   0.734440 0.963819 0.487158 -0.237388
C56   C     C_R   0.510057 0.246242 0.070069 -0.231899
C57   C     C_R   0.440288 0.702978 0.089410 -0.241648
C58   C     C_R   0.918943 0.555834 0.297436 -0.235470
C59   C     C_R   0.536429 0.669362 0.070516 0.019726
C60   C     C_R   0.055565 0.447107 0.708581 -0.219734
C61   C     C_R   0.324595 0.917860 0.327036 0.003121
C62   C     C_R   0.675298 0.068146 0.673896 -0.005836
C63   C     C_R   0.917861 0.324595 0.327036 0.003121
C64   C     C_R   0.068146 0.675298 0.673896 -0.005837
C65   C     C_R   0.285714 0.285714 0.042426 0.022484
C66   C     C_R   0.688008 0.688008 0.013950 0.020525
C67   C     C_R   0.690152 0.955753 0.437821 0.108829
C68   C     C_R   0.324601 0.971896 0.594177 0.104678
C69   C     C_R   0.028473 0.405515 0.670807 0.105430
C70   C     C_R   0.541899 0.044266 0.675336 0.037955
C71   C     C_R   0.930709 0.601221 0.343731 0.108827
C72   C     C_R   0.389987 0.653458 0.089979 0.112278
C73   C     C_R   0.556952 0.292945 0.079186 0.106056
C74   C     C_R   0.601221 0.930710 0.343730 0.108827
C75   C     C_R   0.405515 0.028473 0.670807 0.105430
C76   C     C_R   0.292945 0.556952 0.079186 0.106055
C77   C     C_R   0.653458 0.389987 0.089979 0.112278
C78   C     C_R   0.971896 0.324601 0.594177 0.104678
C79   C     C_R   0.955751 0.690152 0.437821 0.108829
C80   C     C_R   0.738590 0.933168 0.355238 -0.201383
C81   C     C_R   0.461011 0.931581 0.331350 0.033273
C82   C     C_R   0.276010 0.994860 0.676668 -0.201877
C83   C     C_R   0.026151 0.315126 0.712932 -0.201534
C84   C     C_R   0.920909 0.694556 0.308275 -0.207296
C85   C     C_R   0.296902 0.691309 0.097613 -0.203391
C86   C     C_R   0.643606 0.248908 0.092123 -0.200536
C87   C     C_R   0.694555 0.920911 0.308274 -0.207296
C88   C     C_R   0.315127 0.026151 0.712932 -0.201535
C89   C     C_R   0.248908 0.643606 0.092124 -0.200536
C90   C     C_R   0.691309 0.296902 0.097613 -0.203391
C91   C     C_R   0.994861 0.276010 0.676668 -0.201877
C92   C     C_R   0.669362 0.536429 0.070516 0.019727
C93   C     C_R   0.933167 0.738590 0.355239 -0.201382
C94   C     C_R   0.552517 0.953749 0.426318 0.029174
C95   C     C_R   0.455459 0.001329 0.590695 0.027411
C96   C     C_R   0.977621 0.413363 0.549728 0.030595
C97   C     C_R   0.969593 0.596577 0.471649 0.032115
C98   C     C_R   0.384859 0.516819 0.075820 0.029268
C99   C     C_R   0.565353 0.433510 0.080951 0.029692
C100  C     C_R   0.596576 0.969594 0.471649 0.032115
C101  C     C_R   0.413363 0.977622 0.549728 0.030595
C102  C     C_R   0.433510 0.565353 0.080951 0.029693
H1    H     H_    0.275709 0.045776 0.775347 0.134672
H2    H     H_    0.261598 0.758722 0.105698 0.135280
H3    H     H_    0.904308 0.733326 0.244208 0.131929
H4    H     H_    0.045777 0.275708 0.775347 0.134671
H5    H     H_    0.404000 0.086269 0.763270 0.173838
H6    H     H_    0.596287 0.896178 0.237137 0.172649
H7    H     H_    0.935875 0.806752 0.466305 0.170410
H8    H     H_    0.923104 0.225532 0.600073 0.178670
H9    H     H_    0.767827 0.402567 0.102233 0.170568
H10   H     H_    0.174040 0.540281 0.081521 0.178100
H11   H     H_    0.225532 0.923103 0.600073 0.178670
H12   H     H_    0.733325 0.904310 0.244207 0.131929
H13   H     H_    0.806752 0.935876 0.466305 0.170410
H14   H     H_    0.540281 0.174040 0.081520 0.178100
H15   H     H_    0.402567 0.767827 0.102233 0.170567
H16   H     H_    0.896178 0.596287 0.237137 0.172649
H17   H     H_    0.086269 0.404000 0.763270 0.173838
H18   H     H_    0.332809 0.836078 0.259526 0.185314
H19   H     H_    0.254701 0.940733 0.240492 0.223472
H20   H     H_    0.739810 0.071426 0.752339 0.224611
H21   H     H_    0.657850 0.169232 0.722766 0.191888
H22   H     H_    0.836074 0.332807 0.259531 0.185313
H23   H     H_    0.928644 0.809783 0.325301 0.123388
H24   H     H_    0.940734 0.254705 0.240488 0.223473
H25   H     H_    0.071435 0.739801 0.752342 0.224613
H26   H     H_    0.169242 0.657851 0.722749 0.191885
H27   H     H_    0.165969 0.254073 0.105058 0.176781
H28   H     H_    0.254067 0.165974 0.105074 0.176768
H29   H     H_    0.709158 0.796729 0.901019 0.181788
H30   H     H_    0.796729 0.709158 0.901019 0.181789
H31   H     H_    0.991419 0.206870 0.711458 0.132641
H32   H     H_    0.758722 0.261598 0.105698 0.135280
H33   H     H_    0.177603 0.675238 0.096422 0.136663
H34   H     H_    0.206871 0.991418 0.711459 0.132641
H35   H     H_    0.809783 0.928646 0.325300 0.123388
H36   H     H_    0.675238 0.177603 0.096422 0.136663
N1    N     N_3   0.283739 0.886621 0.289304 -0.432587
N2    N     N_3   0.710454 0.115975 0.699858 -0.435867
N3    N     N_3   0.886622 0.283738 0.289304 -0.432585
N4    N     N_3   0.115978 0.710453 0.699855 -0.435872
N5    N     N_3   0.229989 0.229986 0.061992 -0.398211
N6    N     N_3   0.745092 0.745092 0.945853 -0.390634
O1    O     O_R   0.982940 0.138950 0.510160 -0.645683
O2    O     O_R   0.982940 0.510160 0.138950 -0.655221
O3    O     O_R   0.861050 0.017060 0.489840 -0.659661
O4    O     O_R   0.138950 0.982940 0.510160 -0.645682
O5    O     O_R   0.867700 0.025880 0.612340 -0.624440
O6    O     O_R   0.132300 0.974120 0.387660 -0.610581
O7    O     O_R   0.025880 0.612340 0.867700 -0.627066
O8    O     O_R   0.974120 0.387660 0.132300 -0.663599
O9    O     O_R   0.612340 0.867700 0.025880 -0.604999
O10   O     O_R   0.387660 0.132300 0.974120 -0.604500
O11   O     O_R   0.387660 0.974120 0.132300 -0.663596
O12   O     O_R   0.017060 0.861050 0.489840 -0.659662
O13   O     O_R   0.612340 0.025880 0.867700 -0.627067
O14   O     O_R   0.132300 0.387660 0.974120 -0.604510
O15   O     O_R   0.867700 0.612340 0.025880 -0.604999
O16   O     O_R   0.974120 0.132300 0.387660 -0.610578
O17   O     O_R   0.025880 0.867700 0.612340 -0.624435
O18   O     O_R   0.138950 0.510160 0.982940 -0.641921
O19   O     O_R   0.861050 0.489840 0.017060 -0.641487
O20   O     O_R   0.510160 0.982940 0.138950 -0.655221
O21   O     O_R   0.489840 0.017060 0.861050 -0.626704
O22   O     O_R   0.489840 0.861050 0.017060 -0.641488
O23   O     O_R   0.510160 0.138950 0.982940 -0.641924
O24   O     O_R   0.017060 0.489840 0.861050 -0.626703
Zn1   Zn    Zn3+2 0.004880 0.004880 0.583590 0.918990
Zn2   Zn    Zn3+2 0.995120 0.995120 0.416410 0.919418
Zn3   Zn    Zn3+2 0.004880 0.583590 0.004880 0.913252
Zn4   Zn    Zn3+2 0.995120 0.416410 0.995120 0.912394
Zn5   Zn    Zn3+2 0.583590 0.004880 0.004880 0.913251
Zn6   Zn    Zn3+2 0.416410 0.995120 0.995120 0.912399

loop_
_geom_bond_atom_site_label_1
_geom_bond_atom_site_label_2
_ccdc_geom_bond_type
H30   N6    S    
C89   H33   S    
C6    C45   A    
C19   O11   A    
C74   C94   A    
C50   C79   A    
C72   C85   A    
C75   C95   A    
C14   C46   S    
C20   O21   A    
C14   O1    A    
C24   C36   S    
O15   Zn3   S    
O5    Zn1   S    
C2    C32   A    
C79   C93   A    
C80   C87   A    
O8    Zn4   S    
C58   C71   A    
C57   C59   A    
C66   N6    S    
C76   C98   A    
C80   H35   S    
C54   H11   S    
O9    Zn5   S    
C58   H16   S    
O7    Zn3   S    
C60   H17   S    
C25   O5    A    
C49   C81   A    
C87   H12   S    
C18   O15   A    
C24   O8    A    
C4    C96   A    
O18   Zn3   S    
C2    C44   A    
C27   O4    A    
C16   O12   A    
C1    C28   A    
C3    C12   A    
C94   C100  A    
C74   C87   A    
C36   C63   A    
C8    C101  A    
C9    C95   A    
C12   C98   A    
O3    Zn2   S    
C9    C29   A    
C76   C89   A    
O23   Zn5   S    
O17   Zn1   S    
C6    C31   A    
C11   C31   A    
C33   C59   A    
C7    C30   A    
C40   C66   A    
O2    Zn3   S    
C12   C32   A    
C32   C48   A    
C44   C65   A    
C42   C81   A    
C41   C62   A    
C20   C41   S    
C15   C35   A    
C4    C69   A    
C1    C34   A    
C15   C29   A    
C49   H6    S    
C38   C64   A    
C27   C34   S    
C56   H14   S    
O1    Zn1   S    
C77   C90   A    
O22   Zn6   S    
O10   Zn6   S    
C7    C46   A    
C8    C94   A    
C68   C101  A    
C86   C90   A    
C33   C92   A    
C78   C96   A    
C85   C89   A    
C61   N1    S    
C52   H9    S    
O21   Zn6   S    
C98   C102  A    
H21   N2    S    
C50   H7    S    
C17   O14   A    
C21   O22   A    
C31   C37   A    
C14   O16   A    
H25   N4    S    
C15   C55   A    
C13   C99   A    
C29   C70   A    
C1    C54   A    
C47   C70   A    
C13   C33   A    
C37   C38   A    
C69   C83   A    
C18   O19   A    
C10   C30   A    
C91   H31   S    
C10   C96   A    
O4    Zn1   S    
C63   N3    S    
O20   Zn5   S    
C25   O3    A    
H18   N1    S    
C6    C50   A    
C4    C11   A    
H28   N5    S    
C26   C58   A    
C42   C61   A    
C85   H2    S    
C67   C100  A    
C25   C35   S    
C22   O23   A    
O11   Zn6   S    
C26   C36   A    
C5    C97   A    
C26   C30   A    
C27   O6    A    
C64   N4    S    
C20   O13   A    
C16   O17   A    
H22   N3    S    
C52   C92   A    
C53   C76   A    
C84   H3    S    
C52   C77   A    
C88   H1    S    
C53   H10   S    
C57   H15   S    
C71   C84   A    
C22   O10   A    
C48   C56   A    
C23   O7    A    
O16   Zn2   S    
C56   C73   A    
H24   N3    S    
C28   C81   A    
C79   C97   A    
O19   Zn4   S    
C67   C80   A    
C19   O20   A    
C47   C75   A    
C2    C53   A    
C16   C45   S    
C55   C67   A    
C19   C42   S    
H27   N5    S    
C78   C91   A    
C51   H8    S    
C23   C38   S    
C83   C91   A    
C39   C65   A    
C45   C64   A    
C47   H5    S    
C43   C92   A    
C83   H4    S    
C46   C63   A    
C11   C97   A    
C68   C82   A    
H19   N1    S    
C17   C44   S    
H20   N2    S    
C5    C10   A    
C5    C71   A    
C24   O2    A    
C18   C43   S    
C55   H13   S    
O14   Zn4   S    
O6    Zn2   S    
C21   C40   S    
C72   C102  A    
C60   C69   A    
C43   C66   A    
C82   C88   A    
C22   C39   S    
O12   Zn2   S    
C9    C100  A    
C77   C99   A    
C35   C62   A    
C84   C93   A    
C34   C61   A    
C57   C72   A    
C82   H34   S    
C3    C73   A    
C93   H23   S    
C73   C86   A    
C51   C78   A    
C37   C60   A    
C17   O18   A    
C86   H36   S    
C7    C51   A    
C23   O24   A    
C3    C99   A    
C75   C88   A    
O24   Zn4   S    
C54   C68   A    
C8    C28   A    
C40   C59   A    
C21   O9    A    
C49   C74   A    
C41   C70   A    
C90   H32   S    
C62   N2    S    
C13   C102  A    
H26   N4    S    
C65   N5    S    
H29   N6    S    
C95   C101  A    
O13   Zn5   S    
C39   C48   A    
