data_str_m9_o4_o16_f0_sra.sym.100
_audit_creation_date              2012-12-11T17:00:13-0500
_audit_creation_method            fapswitch 2.2
_symmetry_space_group_name_H-M    P1
_symmetry_Int_Tables_number       1
_space_group_crystal_system       triclinic
_cell_length_a                    6.960899
_cell_length_b                    13.553247
_cell_length_c                    20.270591
_cell_angle_alpha                 103.028793
_cell_angle_beta                  90.245159
_cell_angle_gamma                 90.306443
_cell_volume                      1863.09710742

loop_
_atom_site_label
_atom_site_type_symbol
_atom_type_description
_atom_site_fract_x
_atom_site_fract_y
_atom_site_fract_z
_atom_type_partial_charge
O1    O     O_R   0.506770 0.599700 0.449550 -0.540838
O2    O     O_R   0.179980 0.595740 0.587960 -0.546230
O3    O     O_R   0.004580 0.400300 0.550450 -0.538040
C1    C     C_R   0.348464 0.617754 0.615062 0.691719
O4    O     O_R   0.177380 0.611700 0.452380 -0.537703
O5    O     O_R   0.001970 0.416370 0.413900 -0.541452
C2    C     C_R   0.345634 0.638353 0.435618 0.700919
O6    O     O_R   0.509390 0.583630 0.586100 -0.538030
O7    O     O_3   0.337530 0.435890 0.487530 -0.370385
V1    V     V_3+5 0.064660 0.511890 0.502310 1.415804
O8    O     O_R   0.671950 0.404260 0.412040 -0.541237
C3    C     C_R   0.840335 0.383204 0.384624 0.698396
O9    O     O_R   0.674540 0.388300 0.547620 -0.540207
C4    C     C_R   0.843323 0.361602 0.564225 0.696259
V2    V     V_3+5 0.564030 0.488110 0.497690 1.416756
O10   O     O_3   0.841030 0.564110 0.512470 -0.372338
C5    C     C_R   0.873565 0.109183 0.610398 -0.159011
H1    H     H_    0.867957 0.159117 0.517211 0.102541
H2    H     H_    0.888527 0.983557 0.693329 0.117733
H3    H     H_    0.883448 0.030138 0.584546 0.111341
C6    C     C_R   0.852000 0.284428 0.604064 -0.030836
C7    C     C_R   0.848311 0.317228 0.930715 -0.171131
C8    C     C_R   0.838774 0.393611 0.895265 -0.118600
C9    C     C_R   0.841390 0.370238 0.824716 -0.158841
C10   C     C_R   0.853799 0.268519 0.787461 0.076506
C11   C     C_R   0.863385 0.190512 0.824249 0.070856
C12   C     C_R   0.857015 0.241597 0.715102 0.071881
C13   C     C_R   0.869819 0.137689 0.681420 0.144086
C14   C     C_R   0.878836 0.062864 0.718677 -0.207070
C15   C     C_R   0.875569 0.088667 0.788889 -0.196743
C16   C     C_R   0.848130 0.314067 0.674724 -0.213231
C17   C     C_R   0.864750 0.182218 0.571965 -0.176380
C18   C     C_R   0.860557 0.216043 0.895971 -0.074555
H4    H     H_    0.838271 0.394152 0.696275 0.090413
H5    H     H_    0.845952 0.337042 0.985576 0.102471
H6    H     H_    0.833438 0.433755 0.801123 0.105974
H7    H     H_    0.829178 0.471820 0.922699 0.119318
H8    H     H_    0.882758 0.027722 0.815309 0.108066
C19   C     C_R   0.710515 0.181415 0.227261 0.118224
C20   C     C_R   0.866940 0.183547 0.184362 -0.115425
C21   C     C_R   0.022095 0.247829 0.210553 -0.182344
H9    H     H_    0.144770 0.252990 0.179070 0.136641
C22   C     C_R   0.014626 0.311421 0.275914 -0.162443
H10   H     H_    0.132234 0.363471 0.292895 0.143710
C23   C     C_R   0.851399 0.312943 0.317035 -0.115026
C24   C     C_R   0.702892 0.244531 0.291973 0.101126
C25   C     C_3   0.495353 0.265918 0.284679 -0.412506
C26   C     C_3   0.503758 0.197805 0.214309 -0.404962
H11   H     H_    0.469434 0.346719 0.284421 0.178124
H12   H     H_    0.404718 0.234577 0.320205 0.172224
H13   H     H_    0.483089 0.238957 0.173167 0.168554
H14   H     H_    0.417058 0.127668 0.209187 0.167106
C27   C     C_R   0.500297 0.679161 0.730135 0.101602
C28   C     C_R   0.352003 0.683840 0.684196 -0.109304
C29   C     C_R   0.196178 0.748177 0.708009 -0.176163
H15   H     H_    0.077264 0.753736 0.674612 0.128212
C30   C     C_R   0.197523 0.810892 0.773712 -0.172083
H16   H     H_    0.080705 0.863180 0.788766 0.125376
C31   C     C_R   0.354973 0.811419 0.817538 -0.109223
C32   C     C_R   0.502269 0.741814 0.794961 0.100237
C33   C     C_3   0.713450 0.759343 0.792570 -0.398855
C34   C     C_3   0.711111 0.690902 0.722034 -0.406978
H17   H     H_    0.793308 0.726794 0.830185 0.171431
H18   H     H_    0.748475 0.839545 0.792907 0.166519
H19   H     H_    0.789117 0.618632 0.718889 0.166012
H20   H     H_    0.744962 0.731265 0.681438 0.168448
C35   C     C_R   0.277827 0.886451 0.387001 -0.160111
H21   H     H_    0.273065 0.837212 0.480312 0.104600
H22   H     H_    0.250476 0.009625 0.303196 0.122402
H23   H     H_    0.243387 0.963806 0.411775 0.112699
C36   C     C_R   0.348861 0.715986 0.395936 -0.065043
C37   C     C_R   0.383079 0.682200 0.068449 -0.216305
C38   C     C_R   0.371779 0.604305 0.102441 -0.194552
C39   C     C_R   0.345056 0.624595 0.173008 0.349757
C40   C     C_R   0.341485 0.727199 0.211059 0.041039
C41   C     C_R   0.334582 0.805722 0.174351 0.012245
C42   C     C_R   0.337311 0.755565 0.283780 0.088073
C43   C     C_R   0.297886 0.857923 0.316400 0.131704
C44   C     C_R   0.279252 0.931449 0.278621 -0.204529
C45   C     C_R   0.301821 0.906306 0.209047 -0.177944
C46   C     C_R   0.375715 0.687418 0.325853 -0.174420
C47   C     C_R   0.297395 0.815115 0.426233 -0.168247
C48   C     C_R   0.359046 0.782334 0.103249 -0.076800
H24   H     H_    0.427926 0.611953 0.306303 0.164429
H25   H     H_    0.403713 0.663936 0.014085 0.119389
H26   H     H_    0.379447 0.527037 0.073108 0.115281
H27   H     H_    0.288798 0.966460 0.182297 0.116359
O11   O     O_R   0.203450 0.916320 0.913910 -0.541595
O12   O     O_R   0.535520 0.888300 0.047620 -0.539031
O13   O     O_R   0.710860 0.083650 0.086100 -0.537693
C49   C     C_R   0.366962 0.861485 0.064312 0.702456
O14   O     O_R   0.532860 0.904250 0.912040 -0.542565
O15   O     O_R   0.708190 0.099710 0.949550 -0.537742
C50   C     C_R   0.364181 0.882628 0.884798 0.697110
O16   O     O_R   0.206120 0.900260 0.050460 -0.538789
O17   O     O_3   0.375280 0.064080 0.012470 -0.372210
V3    V     V_3+5 0.648180 0.988110 0.997690 1.415953
O18   O     O_R   0.038220 0.111740 0.952370 -0.540397
C51   C     C_R   0.869422 0.138331 0.935723 0.687482
O19   O     O_R   0.040880 0.095790 0.087940 -0.547022
C52   C     C_R   0.872718 0.117714 0.115087 0.694861
V4    V     V_3+5 0.148800 0.011950 0.002300 1.407422
O20   O     O_3   0.871820 0.935920 0.987530 -0.370013
O21   O     O_3   0.305883 0.545333 0.203487 -0.670723
H28   H     H_    0.312152 0.480072 0.169527 0.276057

loop_
_geom_bond_atom_site_label_1
_geom_bond_atom_site_label_2
_ccdc_geom_bond_type
C29   H15   S    
O17   V4    S    
C21   H9    S    
C1    O6    A    
C37   H25   S    
C25   H11   S    
C42   C43   A    
C7    H5    S    
C6    C16   A    
C9    H6    S    
C4    C6    S    
C13   C14   A    
C45   H27   S    
O5    C3    A    
C30   C31   A    
V2    O10   S    
C5    H3    S    
C15   H8    S    
C38   C39   A    
C33   H17   S    
C20   C52   S    
C28   C29   A    
O8    V2    S    
C26   H13   S    
C8    C9    A    
O1    V2    S    
C31   C50   S    
O12   C49   A    
O7    V1    S    
O15   C51   A    
O13   V3    S    
O16   V4    S    
C36   C47   A    
C31   C32   A    
O9    C4    A    
C21   C22   A    
V4    O20   S    
C35   C43   A    
C41   C48   A    
O19   V4    S    
O21   H28   S    
C27   C32   A    
O14   V3    S    
C25   H12   S    
C6    C17   A    
O11   C50   A    
C39   C40   A    
C34   H20   S    
C12   C16   A    
C9    C10   A    
C19   C20   A    
O4    C2    A    
C43   C44   A    
C3    C23   S    
C10   C11   A    
O18   V4    S    
O12   V3    S    
C32   C33   S    
C18   C51   S    
C33   H18   S    
O2    C1    A    
C40   C41   A    
O13   C52   A    
C14   C15   A    
C8    H7    S    
C22   C23   A    
C27   C34   S    
C11   C18   A    
C25   C26   S    
C42   C46   A    
O17   V3    S    
O14   C50   A    
C16   H4    S    
C40   C42   A    
V3    O20   S    
O3    C4    A    
C19   C24   A    
C20   C21   A    
C11   C15   A    
O6    V2    S    
O9    V2    S    
C22   H10   S    
H22   C44   S    
H1    C17   S    
O2    V1    S    
O15   V3    S    
C46   H24   S    
C39   O21   S    
C7    C18   A    
C24   C25   S    
C34   H19   S    
C1    C28   S    
O1    C2    A    
C5    C13   A    
C41   C45   A    
C37   C38   A    
O5    V1    S    
O11   V4    S    
O8    C3    A    
C27   C28   A    
C10   C12   A    
C48   C49   S    
C35   H23   S    
H21   C47   S    
C29   C30   A    
O7    V2    S    
O4    V1    S    
O3    V1    S    
V1    O10   S    
C2    C36   S    
C30   H16   S    
O19   C52   A    
C33   C34   S    
C38   H26   S    
C37   C48   A    
C49   O16   A    
C44   C45   A    
C23   C24   A    
C26   H14   S    
C35   C47   A    
O18   C51   A    
C12   C13   A    
C5    C17   A    
C7    C8    A    
C19   C26   S    
C36   C46   A    
H2    C14   S    
