data_str_m9_o17_o24_f0_sra.sym.50
_audit_creation_date              2013-03-05T15:51:00-0500
_audit_creation_method            fapswitch 2.2
_symmetry_space_group_name_H-M    P1
_symmetry_Int_Tables_number       1
_space_group_crystal_system       triclinic
_cell_length_a                    6.944675
_cell_length_b                    17.623122
_cell_length_c                    19.223494
_cell_angle_alpha                 109.411951
_cell_angle_beta                  90.269245
_cell_angle_gamma                 90.954298
_cell_volume                      2218.52125373

loop_
_atom_site_label
_atom_site_type_symbol
_atom_site_description
_atom_site_fract_x
_atom_site_fract_y
_atom_site_fract_z
_atom_type_partial_charge
O1    O     O_R   0.505810 0.439670 0.562310 -0.596872
O2    O     O_R   0.169070 0.404920 0.411210 -0.580314
O3    O     O_R   0.005550 0.560330 0.437690 -0.553115
C1    C     C_R   0.338286 0.381307 0.383350 1.007692
O4    O     O_R   0.175650 0.430000 0.560110 -0.594207
O5    O     O_R   0.012170 0.585580 0.587650 -0.598394
C2    C     C_R   0.344163 0.415807 0.582152 0.912114
O6    O     O_R   0.499180 0.414420 0.412350 -0.604145
O7    O     O_3   0.341430 0.551020 0.508860 -0.255723
V1    V     V_3+5 0.063930 0.490540 0.498360 1.202994
O8    O     O_R   0.682850 0.595080 0.588790 -0.606011
C3    C     C_R   0.853803 0.617267 0.617313 0.934714
O9    O     O_R   0.676280 0.570000 0.439890 -0.586329
C4    C     C_R   0.845572 0.582021 0.415602 1.013073
V2    V     V_3+5 0.564760 0.509460 0.501640 1.190366
O10   O     O_3   0.837130 0.448980 0.491140 -0.281307
C5    C     C_R   0.755055 0.868808 0.175330 -0.197867
C6    C     C_R   0.912850 0.863575 0.128904 -0.116161
C7    C     C_R   0.059312 0.809332 0.127677 -0.230494
C8    C     C_R   0.048910 0.758503 0.170986 0.071527
C9    C     C_R   0.891309 0.766401 0.219599 0.123661
C10   C     C_R   0.745046 0.821884 0.221489 0.119400
C11   C     C_R   0.192026 0.701001 0.168096 -0.133381
C12   C     C_R   0.177192 0.654777 0.214912 -0.077132
C13   C     C_R   0.023675 0.662937 0.264343 0.071513
C14   C     C_R   0.879513 0.719324 0.266639 -0.001015
C15   C     C_R   0.723631 0.729011 0.316029 0.058020
C16   C     C_R   0.579813 0.785285 0.317368 0.335753
C17   C     C_R   0.590858 0.830385 0.269948 -0.284589
C18   C     C_R   0.011977 0.615811 0.311367 0.293842
C19   C     C_R   0.859139 0.627400 0.362598 -0.257769
C20   C     C_R   0.716187 0.683023 0.363352 -0.177544
H1    H     H_    0.641940 0.911043 0.176918 0.127573
H2    H     H_    0.180252 0.807707 0.092312 0.128381
H3    H     H_    0.288736 0.611938 0.211967 0.212457
H4    H     H_    0.599819 0.690765 0.402139 0.199812
H5    H     H_    0.478697 0.872974 0.271524 0.170532
C21   C     C_3   0.789078 0.809339 0.744225 -0.098436
C22   C     C_3   0.960995 0.769013 0.695601 -0.212716
H6    H     H_    0.022782 0.786606 0.649888 0.148831
H7    H     H_    0.710381 0.860715 0.738153 0.180885
C23   C     C_3   0.872806 0.685872 0.688499 -0.109626
C24   C     C_3   0.701196 0.725040 0.736155 -0.127153
C25   C     C_3   0.814883 0.725445 0.805549 -0.002854
C26   C     C_3   0.985905 0.684211 0.757428 -0.254786
C27   C     C_3   0.070276 0.768480 0.765491 0.031325
C28   C     C_3   0.901235 0.809175 0.813879 -0.138194
H8    H     H_    0.553256 0.700988 0.720468 0.115367
H9    H     H_    0.067821 0.632699 0.762533 0.127387
C29   C     C_3   0.556645 0.282614 0.279395 -0.072884
C30   C     C_3   0.492137 0.193813 0.264997 -0.129443
H10   H     H_    0.580633 0.147812 0.277222 0.156370
H11   H     H_    0.698681 0.309227 0.302650 0.153365
C31   C     C_3   0.415111 0.189102 0.188084 -0.165964
C32   C     C_3   0.477655 0.277216 0.202710 -0.068994
C33   C     C_3   0.279670 0.307146 0.236477 -0.241768
C34   C     C_3   0.217450 0.218708 0.222810 0.392323
C35   C     C_3   0.293705 0.223408 0.299701 -0.222586
C36   C     C_3   0.357037 0.311170 0.312823 -0.162745
H12   H     H_    0.189274 0.352092 0.223490 0.195417
H13   H     H_    0.215008 0.201066 0.339382 0.173404
C37   C     C_R   0.423325 0.097704 0.793067 0.263810
C38   C     C_R   0.416329 0.135727 0.870007 -0.300760
C39   C     C_R   0.382562 0.219396 0.899151 -0.159992
C40   C     C_R   0.392519 0.267138 0.851922 0.024240
C41   C     C_R   0.390983 0.227605 0.774183 -0.048914
C42   C     C_R   0.403705 0.142854 0.744997 0.100990
C43   C     C_R   0.408885 0.352705 0.878730 0.384646
C44   C     C_R   0.397781 0.396336 0.829955 -0.289364
C45   C     C_R   0.378716 0.357557 0.753910 0.113713
C46   C     C_R   0.377505 0.272917 0.725229 0.040420
C47   C     C_R   0.365864 0.233664 0.647671 0.131683
C48   C     C_R   0.381216 0.149457 0.620463 -0.156515
C49   C     C_R   0.400203 0.105184 0.667994 -0.150106
C50   C     C_R   0.369745 0.402749 0.706159 -0.199910
C51   C     C_R   0.353654 0.364963 0.629721 -0.205923
C52   C     C_R   0.346971 0.279989 0.599654 -0.105966
H14   H     H_    0.410338 0.461424 0.851675 0.171477
H15   H     H_    0.374445 0.467979 0.728503 0.107172
H16   H     H_    0.384492 0.116457 0.562057 0.190180
H17   H     H_    0.412455 0.040785 0.643014 0.197345
O11   O     O_R   0.271890 0.085690 0.087580 -0.591269
O12   O     O_R   0.595690 0.070020 0.939870 -0.569421
O13   O     O_R   0.758900 0.914390 0.912370 -0.560283
C53   C     C_R   0.426728 0.085892 0.919061 1.007065
O14   O     O_R   0.602020 0.095100 0.088770 -0.540335
O15   O     O_R   0.765280 0.939660 0.062330 -0.594906
C54   C     C_R   0.432951 0.118582 0.117060 0.957387
O16   O     O_R   0.265520 0.060430 0.937620 -0.597720
O17   O     O_3   0.429560 0.949050 0.991100 -0.250975
V3    V     V_3+5 0.707160 0.009450 0.001650 1.288413
O18   O     O_R   0.094540 0.929890 0.060190 -0.609534
C55   C     C_R   0.925104 0.914695 0.081496 0.999352
O19   O     O_R   0.088200 0.904800 0.911290 -0.573504
C56   C     C_R   0.917477 0.880867 0.883691 0.992700
V4    V     V_3+5 0.206300 0.990390 0.998440 1.252814
O20   O     O_3   0.934030 0.050940 0.008900 -0.242250
C57   C     C_2   0.731849 0.698163 0.865187 0.596527
H18   H     H_    0.672131 0.637648 0.851484 -0.012110
O21   O     O_2   0.730758 0.743295 0.928981 -0.582549
C58   C     C_2   0.275228 0.793872 0.782374 0.492822
H19   H     H_    0.354735 0.817665 0.745704 0.053623
O22   O     O_2   0.352920 0.788556 0.837595 -0.560912
C59   C     C_2   0.586633 0.312116 0.153115 0.583855
H20   H     H_    0.601414 0.376920 0.167692 0.059386
O23   O     O_2   0.661594 0.268489 0.097176 -0.547430
Br1   Br    Br    0.962956 0.176488 0.189119 -0.545469
Br2   Br    Br    0.442378 0.982289 0.754622 -0.650659
C60   C     C_2   0.305558 0.251550 0.975168 0.706423
H21   H     H_    0.354042 0.228198 0.017586 -0.028850
O24   O     O_2   0.175370 0.299902 0.989530 -0.522929
Br3   Br    Br    0.487203 0.415016 0.977938 -0.434605
C61   C     C_2   0.319475 0.242017 0.518497 0.515630
H22   H     H_    0.388883 0.268259 0.481153 -0.029648
O25   O     O_2   0.210709 0.184164 0.492803 -0.581299
C62   C     C_2   0.356231 0.685599 0.115679 0.579134
H23   H     H_    0.354305 0.704824 0.067806 0.027596
O26   O     O_2   0.497088 0.649134 0.124726 -0.551890
Br4   Br    Br    0.198549 0.532169 0.301434 -0.587871
Br5   Br    Br    0.365257 0.804949 0.383531 -0.562112

loop_
_geom_bond_atom_site_label_1
_geom_bond_atom_site_label_2
_geom_bond_distance
_ccdc_geom_bond_type
C9    C14   1.417700 A    
C58   H19   1.081696 S    
C10   C17   1.399552 A    
O15   V3    2.000514 S    
C48   C49   1.391836 A    
C7    C8    1.412414 A    
C4    C19   1.492197 S    
C1    O6    1.286847 A    
C59   O23   1.219644 D    
C34   C35   1.543345 S    
C26   C27   1.545958 S    
C33   C34   1.545682 S    
C14   C15   1.417943 A    
C47   C52   1.427966 A    
C37   C42   1.413071 A    
C29   C36   1.550620 S    
C20   H4    1.081383 S    
C16   C17   1.395990 A    
O14   V3    1.996032 S    
C60   O24   1.221221 D    
O5    C3    1.288899 A    
C21   C22   1.549642 S    
O14   C54   1.310792 A    
C37   Br2   1.926514 S    
C18   Br4   1.940842 S    
V2    O10   2.163876 S    
O18   V4    1.992646 S    
C62   H23   1.081288 S    
C6    C7    1.402322 A    
C43   Br3   1.927972 S    
C3    C23   1.498336 S    
C11   C62   1.492892 S    
C31   C32   1.537918 S    
C25   C57   1.497116 S    
C19   C20   1.403497 A    
C43   C44   1.398874 A    
C11   C12   1.403401 A    
C45   C46   1.407785 A    
O1    V2    1.995429 S    
O13   V3    1.998961 S    
C24   H8    1.106240 S    
C25   C28   1.541149 S    
C35   H13   1.109953 S    
C41   C42   1.414630 A    
C58   O22   1.220310 D    
O9    C4    1.306797 A    
C38   C53   1.489202 S    
C44   H14   1.084277 S    
C44   C45   1.397377 A    
C5    H1    1.084721 S    
C52   C61   1.489028 S    
C59   H20   1.084620 S    
C5    C6    1.401331 A    
C22   C23   1.541720 S    
C51   C52   1.414517 A    
C27   C58   1.486383 S    
C12   H3    1.079215 S    
O11   V4    2.004666 S    
C30   H10   1.109958 S    
C29   H11   1.110784 S    
C12   C13   1.408572 A    
C21   H7    1.103727 S    
C16   Br5   1.923530 S    
C22   H6    1.110258 S    
C42   C49   1.406550 A    
C53   O16   1.294384 A    
C35   C36   1.538218 S    
C32   C59   1.497022 S    
C33   H12   1.109210 S    
C23   C26   1.546061 S    
O2    C1    1.309594 A    
C50   C51   1.400232 A    
C37   C38   1.407821 A    
C41   C46   1.425926 A    
C8    C11   1.419313 A    
C26   H9    1.110522 S    
C39   C60   1.486441 S    
C40   C43   1.424656 A    
V4    O20   2.163903 S    
C32   C33   1.547570 S    
C29   C30   1.553681 S    
C30   C35   1.554789 S    
V3    O20   1.711198 S    
O19   V4    2.005167 S    
C21   C28   1.546742 S    
O3    C4    1.295503 A    
C22   C27   1.542781 S    
C34   Br1   1.929200 S    
C57   H18   1.084552 S    
O6    V2    2.003800 S    
O8    V2    2.005388 S    
O9    V2    1.992522 S    
C24   C25   1.544836 S    
C23   C24   1.534083 S    
C49   H17   1.080382 S    
O2    V1    1.996117 S    
C45   C50   1.402786 A    
C25   C26   1.544885 S    
O4    C2    1.298917 A    
C61   H22   1.085396 S    
O7    V1    2.162311 S    
C13   C18   1.418097 A    
C27   C28   1.533801 S    
O12   C53   1.302303 A    
C15   C20   1.405768 A    
O1    C2    1.295175 A    
C5    C10   1.400883 A    
C47   C48   1.406066 A    
C7    H2    1.077789 S    
O5    V1    1.998904 S    
O8    C3    1.303426 A    
O17   V4    1.710550 S    
C2    C51   1.479668 S    
O12   V3    2.002669 S    
C57   O21   1.220057 D    
C29   C32   1.542902 S    
C33   C36   1.539427 S    
C30   C31   1.545508 S    
C39   C40   1.429462 A    
O16   V4    2.001634 S    
C13   C14   1.412839 A    
O4    V1    2.002518 S    
O3    V1    2.000742 S    
V1    O10   1.711268 S    
C60   H21   1.082924 S    
C31   C54   1.517504 S    
O17   V3    2.162223 S    
C18   C19   1.421805 A    
O11   C54   1.289315 A    
O15   C55   1.296698 A    
C1    C36   1.508633 S    
O18   C55   1.300375 A    
C48   H16   1.079800 S    
C62   O26   1.222191 D    
O7    V2    1.712732 S    
O19   C56   1.301442 A    
C38   C39   1.416580 A    
C21   C24   1.555405 S    
C46   C47   1.421046 A    
C8    C9    1.420856 A    
C40   C41   1.423477 A    
C17   H5    1.084227 S    
C15   C16   1.413508 A    
C6    C55   1.480989 S    
C28   C56   1.508917 S    
C9    C10   1.413832 A    
C50   H15   1.085107 S    
O13   C56   1.294840 A    
C61   O25   1.220706 D    
C31   C34   1.550187 S    
