data_str_m9_o10_o29_f0_sra.sym.206
_audit_creation_date              2012-12-11T14:08:35-0500
_audit_creation_method            fapswitch 2.2
_symmetry_space_group_name_H-M    P1
_symmetry_Int_Tables_number       1
_space_group_crystal_system       triclinic
_cell_length_a                    28.212187
_cell_length_b                    7.171713
_cell_length_c                    17.351704
_cell_angle_alpha                 89.969227
_cell_angle_beta                  102.032419
_cell_angle_gamma                 89.997495
_cell_volume                      3433.6324695

loop_
_atom_site_label
_atom_site_type_symbol
_atom_type_description
_atom_site_fract_x
_atom_site_fract_y
_atom_site_fract_z
_atom_type_partial_charge
O1    O     O_R   0.000700 0.436510 0.857920 -0.510023
O2    O     O_R   0.999300 0.563490 0.142080 -0.510024
O3    O     O_R   0.999300 0.936510 0.642080 -0.510170
O4    O     O_R   0.000700 0.063490 0.357920 -0.510170
O5    O     O_R   0.930080 0.766380 0.721890 -0.553881
O6    O     O_R   0.069920 0.233620 0.278110 -0.553881
O7    O     O_R   0.069920 0.266380 0.778110 -0.547581
O8    O     O_R   0.930080 0.733620 0.221890 -0.547582
C1    C     C_R   0.910683 0.597659 0.707857 0.767935
C2    C     C_R   0.089317 0.402341 0.292144 0.767935
C3    C     C_R   0.089318 0.097626 0.792136 0.794696
C4    C     C_R   0.910682 0.902374 0.207864 0.794692
O9    O     O_R   0.996180 0.766230 0.862310 -0.548465
O10   O     O_R   0.003820 0.233770 0.137690 -0.548464
O11   O     O_R   0.003820 0.266230 0.637690 -0.549632
O12   O     O_R   0.996180 0.733770 0.362310 -0.549631
O13   O     O_R   0.065870 0.936460 0.783500 -0.509552
O14   O     O_R   0.934130 0.063540 0.216500 -0.509549
O15   O     O_R   0.934130 0.436460 0.716500 -0.514710
O16   O     O_R   0.065870 0.563540 0.283500 -0.514710
C5    C     C_R   0.997752 0.596077 0.894208 0.694328
C6    C     C_R   0.002248 0.403923 0.105792 0.694331
C7    C     C_R   0.000675 0.096504 0.605264 0.692368
C8    C     C_R   0.999325 0.903496 0.394736 0.692371
O17   O     O_3   0.022790 0.603020 0.723980 -0.367176
O18   O     O_3   0.977210 0.396980 0.276020 -0.367176
O19   O     O_3   0.977210 0.103020 0.776020 -0.376911
O20   O     O_3   0.022790 0.896980 0.223980 -0.376911
V1    V     V_3+5 0.995770 0.877900 0.754830 1.534774
V2    V     V_3+5 0.004230 0.122100 0.245170 1.534773
V3    V     V_3+5 0.004230 0.377900 0.745170 1.539502
V4    V     V_3+5 0.995770 0.622100 0.254830 1.539499
C9    C     C_2   0.996664 0.083210 0.517917 0.140706
C10   C     C_2   0.003336 0.916790 0.482083 0.140707
C11   C     C_2   0.993658 0.580525 0.978731 0.143362
C12   C     C_2   0.006342 0.419475 0.021269 0.143361
C13   C     C_R   0.677749 0.797877 0.064442 0.667141
C14   C     C_R   0.322252 0.202125 0.935534 0.667133
C15   C     C_R   0.322268 0.297796 0.435593 0.667038
C16   C     C_R   0.677731 0.702209 0.564429 0.667038
O21   O     O_2   0.701927 0.648070 0.045509 -0.486582
O22   O     O_2   0.298075 0.351939 0.954462 -0.486577
O23   O     O_2   0.298114 0.147841 0.454485 -0.486769
O24   O     O_2   0.701885 0.852162 0.545535 -0.486770
N1    N     N_R   0.702695 0.939162 0.108333 -0.520037
N2    N     N_R   0.297305 0.060832 0.891649 -0.520037
N3    N     N_R   0.297297 0.439205 0.391737 -0.519941
N4    N     N_R   0.702701 0.560798 0.608283 -0.519942
C17   C     C_R   0.678814 0.093311 0.127455 0.679251
C18   C     C_R   0.321185 0.906677 0.872532 0.679256
C19   C     C_R   0.321154 0.593492 0.372647 0.679096
C20   C     C_R   0.678844 0.406513 0.627375 0.679100
C21   C     C_R   0.776721 0.792435 0.186781 0.381484
C22   C     C_R   0.223277 0.207547 0.813200 0.381501
C23   C     C_R   0.223300 0.292766 0.313163 0.381179
C24   C     C_R   0.776701 0.707235 0.686850 0.381182
C25   C     C_R   0.827614 0.782490 0.208845 -0.385583
C26   C     C_R   0.172385 0.217495 0.791140 -0.385570
C27   C     C_R   0.172408 0.282783 0.291075 -0.386613
C28   C     C_R   0.827593 0.717218 0.708933 -0.386615
C29   C     C_R   0.835301 0.052068 0.127261 0.227195
C30   C     C_R   0.164700 0.947943 0.872742 0.227215
C31   C     C_R   0.164663 0.551623 0.372917 0.223698
C32   C     C_R   0.835335 0.448374 0.627092 0.223698
C33   C     C_R   0.784036 0.054674 0.100624 0.263274
C34   C     C_R   0.215965 0.945336 0.899373 0.263264
C35   C     C_R   0.215929 0.554277 0.399547 0.264182
C36   C     C_R   0.784068 0.445719 0.600467 0.264182
C37   C     C_R   0.754951 0.929089 0.132640 0.278329
C38   C     C_R   0.245049 0.070905 0.867346 0.278321
C39   C     C_R   0.245042 0.429089 0.367421 0.278126
C40   C     C_R   0.754957 0.570911 0.632595 0.278124
C41   C     C_R   0.601989 0.967894 0.055646 -0.046969
C42   C     C_R   0.398011 0.032104 0.944332 -0.046966
C43   C     C_R   0.398006 0.467936 0.444400 -0.046933
C44   C     C_R   0.601992 0.532073 0.555625 -0.046933
C45   C     C_R   0.627055 0.808941 0.038029 -0.068900
C46   C     C_R   0.372946 0.191061 0.961946 -0.068900
C47   C     C_R   0.372962 0.308876 0.462007 -0.068841
C48   C     C_R   0.627036 0.691131 0.538017 -0.068840
C49   C     C_R   0.601164 0.665160 0.993959 -0.124800
C50   C     C_R   0.398837 0.334847 0.006011 -0.124807
C51   C     C_R   0.398875 0.165001 0.506063 -0.124849
C52   C     C_R   0.601123 0.835008 0.493962 -0.124848
C53   C     C_R   0.628302 0.111167 0.100930 -0.060960
C54   C     C_R   0.371698 0.888824 0.899054 -0.060963
C55   C     C_R   0.371669 0.611329 0.399147 -0.060856
C56   C     C_R   0.628329 0.388679 0.600878 -0.060858
C57   C     C_R   0.857114 0.912121 0.180425 -0.143618
C58   C     C_R   0.142886 0.087878 0.819572 -0.143623
C59   C     C_R   0.142882 0.412040 0.319611 -0.140260
C60   C     C_R   0.857118 0.587960 0.680394 -0.140260
H1    H     H_    0.619422 0.540544 0.980051 0.178667
H2    H     H_    0.380580 0.459467 0.019917 0.178669
H3    H     H_    0.380635 0.040313 0.519972 0.178677
H4    H     H_    0.619363 0.959695 0.480053 0.178678
C61   C     C_R   0.473741 0.853508 0.954308 0.028404
C62   C     C_R   0.526259 0.146489 0.045669 0.028404
C63   C     C_R   0.526281 0.353409 0.545675 0.028407
C64   C     C_R   0.473717 0.646602 0.454352 0.028407
C65   C     C_R   0.475158 0.163001 0.017442 0.028043
C66   C     C_R   0.524842 0.837000 0.982533 0.028041
C67   C     C_R   0.524820 0.663091 0.482553 0.028039
C68   C     C_R   0.475178 0.336920 0.517473 0.028039
C69   C     C_R   0.449201 0.016175 0.972124 0.075439
C70   C     C_R   0.550799 0.983824 0.027853 0.075438
C71   C     C_R   0.550801 0.516160 0.527855 0.075434
C72   C     C_R   0.449197 0.483850 0.472172 0.075434
C73   C     C_R   0.445993 0.712831 0.908282 -0.184849
C74   C     C_R   0.554007 0.287160 0.091700 -0.184843
C75   C     C_R   0.554052 0.212627 0.591683 -0.184888
C76   C     C_R   0.445946 0.787384 0.408344 -0.184887
C77   C     C_R   0.396195 0.730487 0.881393 -0.121981
C78   C     C_R   0.603804 0.269502 0.118593 -0.121974
C79   C     C_R   0.603851 0.230255 0.618542 -0.122009
C80   C     C_R   0.396147 0.769755 0.381483 -0.122007
O25   O     O_2   0.296125 0.770721 0.827958 -0.491527
O26   O     O_2   0.703873 0.229258 0.172037 -0.491538
O27   O     O_2   0.703928 0.270415 0.671903 -0.491775
O28   O     O_2   0.296070 0.729590 0.328118 -0.491777
C81   C     C_R   0.551248 0.678047 0.967096 -0.181460
C82   C     C_R   0.448754 0.321960 0.032875 -0.181462
C83   C     C_R   0.448792 0.177885 0.532916 -0.181479
C84   C     C_R   0.551206 0.822126 0.467111 -0.181478
O29   O     O_3   0.983897 0.240659 0.471847 -0.643695
H5    H     H_    0.975500 0.343550 0.504551 0.306616
O30   O     O_3   0.016103 0.759341 0.528153 -0.643695
H6    H     H_    0.024500 0.656450 0.495449 0.306617
O31   O     O_3   0.975076 0.729376 0.013976 -0.644533
H7    H     H_    0.963935 0.828114 0.974484 0.299706
O32   O     O_3   0.024924 0.270624 0.986024 -0.644533
H8    H     H_    0.036064 0.171886 0.025516 0.299706
O33   O     O_3   0.864675 0.182226 0.101685 -0.636494
H9    H     H_    0.846505 0.300780 0.090685 0.303360
O34   O     O_3   0.135326 0.817798 0.898328 -0.636494
H10   H     H_    0.153499 0.699252 0.909349 0.303371
O35   O     O_3   0.135251 0.681353 0.398638 -0.640401
H11   H     H_    0.153388 0.799906 0.409783 0.301835
O36   O     O_3   0.864745 0.318641 0.601368 -0.640400
H12   H     H_    0.846608 0.200087 0.590228 0.301835
O37   O     O_3   0.761134 0.174488 0.042242 -0.605753
H13   H     H_    0.783838 0.206892 0.007841 0.310945
O38   O     O_3   0.238869 0.825536 0.957760 -0.605757
H14   H     H_    0.216169 0.793193 0.992177 0.310930
O39   O     O_3   0.238808 0.673737 0.458026 -0.605846
H15   H     H_    0.216104 0.705707 0.492474 0.311260
O40   O     O_3   0.761187 0.326258 0.541991 -0.605846
H16   H     H_    0.783889 0.294282 0.507541 0.311262
H17   H     H_    0.155751 0.323506 0.749691 0.160475
H18   H     H_    0.844247 0.676469 0.250289 0.160480
H19   H     H_    0.844207 0.822956 0.750478 0.158422
H20   H     H_    0.155795 0.177048 0.249528 0.158421
O41   O     O_3   0.252573 0.329038 0.782591 -0.597696
H21   H     H_    0.231895 0.416811 0.746077 0.319379
O42   O     O_3   0.747425 0.670931 0.217379 -0.597695
H22   H     H_    0.768102 0.583151 0.253890 0.319384
O43   O     O_3   0.747378 0.828380 0.717541 -0.597853
H23   H     H_    0.768038 0.915956 0.754128 0.318792
O44   O     O_3   0.252624 0.171624 0.282475 -0.597857
H24   H     H_    0.231966 0.084049 0.245885 0.318790
H25   H     H_    0.376859 0.617813 0.846828 0.181907
H26   H     H_    0.623140 0.382170 0.153161 0.181905
H27   H     H_    0.623204 0.117497 0.653091 0.181927
H28   H     H_    0.376794 0.882513 0.346935 0.181928
H29   H     H_    0.461419 0.585711 0.891641 0.130690
H30   H     H_    0.538580 0.414277 0.108344 0.130689
H31   H     H_    0.538641 0.085440 0.608329 0.130712
H32   H     H_    0.461357 0.914572 0.391699 0.130712
H33   H     H_    0.534629 0.559393 0.934323 0.129011
H34   H     H_    0.465373 0.440619 0.065642 0.129013
H35   H     H_    0.465429 0.059157 0.565679 0.129025
H36   H     H_    0.534569 0.940854 0.434348 0.129026

loop_
_geom_bond_atom_site_label_1
_geom_bond_atom_site_label_2
_ccdc_geom_bond_type
O17   V3    S    
C81   H33   S    
O1    C5    A    
O43   H23   S    
C62   C74   A    
C23   C27   A    
O19   V1    S    
C18   O25   S    
O13   V1    S    
O3    C7    A    
O40   H16   S    
C76   C80   A    
C48   C52   A    
O4    V2    S    
O15   V3    S    
C22   O41   S    
O39   H15   S    
C29   O33   S    
O34   H10   S    
C68   C83   A    
C34   C38   A    
C27   H20   S    
O7    C3    A    
C25   C57   A    
C54   C77   A    
C50   H2    S    
C32   C36   A    
O9    V1    S    
C53   C78   A    
O10   V2    S    
C14   O22   S    
N4    C20   A    
O44   H24   S    
C22   C26   A    
O4    C8    A    
C78   H26   S    
O38   H14   S    
C76   H32   S    
O1    V3    S    
C49   H1    S    
O2    V4    S    
C52   H4    S    
O3    V1    S    
C14   N2    A    
C1    O15   A    
C11   C12   D    
C2    O16   A    
C10   O30   S    
C24   C40   A    
C22   C38   A    
O2    C6    A    
C16   C48   A    
O14   V2    S    
N1    C17   A    
C66   C81   A    
C11   O31   S    
C61   C66   A    
C26   H17   S    
C73   C77   A    
C61   C69   A    
O11   C7    A    
C63   C68   A    
C21   C37   A    
C43   C72   A    
O12   C8    A    
C79   H27   S    
C31   O35   S    
C31   C59   A    
N4    C40   S    
C67   C84   A    
C1    C60   S    
C29   C57   A    
C19   O28   S    
O5    V1    S    
C28   C60   A    
C65   C69   A    
C31   C35   A    
C64   C72   A    
O7    V3    S    
C30   C34   A    
N1    C37   S    
O8    V4    S    
C17   C53   A    
C4    C57   S    
C20   C56   A    
C12   O32   S    
C19   C55   A    
C21   C25   A    
O18   V4    S    
N3    C19   A    
C34   O38   S    
C14   C46   A    
C7    C9    S    
C13   C45   A    
C64   C67   A    
C8    C10   S    
C35   O39   S    
C24   C28   A    
C49   C81   A    
C36   C40   A    
C28   H19   S    
C15   C47   A    
C30   O34   S    
O5    C1    A    
C24   O43   S    
C33   O37   S    
C46   C50   A    
C17   O26   S    
C84   H36   S    
C45   C49   A    
O8    C4    A    
C63   C75   A    
C25   H18   S    
C9    O29   S    
C9    C10   D    
O9    C5    A    
C27   C59   A    
C51   H3    S    
C42   C54   A    
O11   V3    S    
C26   C58   A    
N3    C39   S    
C55   C80   A    
C36   O40   S    
C73   H29   S    
C43   C55   A    
O6    V2    S    
C2    C59   S    
C64   C76   A    
C44   C71   A    
O29   H5    S    
C52   C84   A    
C32   C60   A    
C13   N1    A    
O30   H6    S    
C68   C72   A    
C6    C12   S    
C15   N3    A    
O31   H7    S    
O16   V4    S    
C16   N4    A    
C74   C78   A    
C3    O13   A    
C80   H28   S    
C44   C48   A    
O6    C2    A    
C15   O23   S    
O36   H12   S    
C21   O42   S    
C5    C11   S    
O12   V4    S    
C62   C65   A    
C63   C71   A    
O35   H11   S    
N2    C18   A    
C65   C82   A    
C62   C70   A    
C51   C83   A    
O10   C6    A    
C56   C79   A    
O20   V2    S    
C61   C73   A    
C41   C53   A    
O37   H13   S    
C42   C69   A    
C47   C51   A    
C74   H30   S    
C3    C58   S    
C41   C70   A    
O33   H9    S    
C33   C37   A    
C30   C58   A    
C23   O44   S    
C66   C70   A    
C35   C39   A    
C13   O21   S    
C44   C56   A    
C83   H35   S    
N2    C38   S    
C18   C54   A    
C77   H25   S    
C20   O27   S    
C29   C33   A    
C16   O24   S    
C75   H31   S    
C75   C79   A    
C42   C46   A    
C4    O14   A    
O42   H22   S    
C41   C45   A    
C67   C71   A    
C82   H34   S    
O41   H21   S    
C43   C47   A    
C50   C82   A    
C23   C39   A    
O32   H8    S    
C32   O36   S    
