data_str_m3_o4_o9_f0_pcu.sym.4
_audit_creation_date              2012-12-10T20:45:34-0500
_audit_creation_method            fapswitch 2.2
_symmetry_space_group_name_H-M    P1
_symmetry_Int_Tables_number       1
_space_group_crystal_system       triclinic
_cell_length_a                    10.757621
_cell_length_b                    10.62509
_cell_length_c                    9.890438
_cell_angle_alpha                 89.493734
_cell_angle_beta                  91.606553
_cell_angle_gamma                 89.703625
_cell_volume                      1129.97879627

loop_
_atom_site_label
_atom_site_type_symbol
_atom_type_description
_atom_site_fract_x
_atom_site_fract_y
_atom_site_fract_z
_atom_type_partial_charge
C1    C     C_R   0.501339 0.260386 0.500281 0.915842
C2    C     C_R   0.835674 0.590932 0.952294 0.061658
C3    C     C_R   0.802280 0.480236 0.020696 -0.133115
C4    C     C_R   0.260079 0.495454 0.497521 0.925968
C5    C     C_R   0.813590 0.363290 0.958320 -0.135371
C6    C     C_R   0.858863 0.355610 0.827679 -0.104036
C7    C     C_R   0.893769 0.465077 0.758962 0.126554
C8    C     C_R   0.602646 0.062208 0.556805 0.091376
C9    C     C_R   0.503170 0.128401 0.497490 -0.064669
C10   C     C_R   0.415310 0.066646 0.415042 -0.185119
C11   C     C_R   0.415453 0.936502 0.413245 -0.229400
C12   C     C_R   0.199681 0.684140 0.012308 -0.178893
C13   C     C_R   0.502623 0.871155 0.494922 -0.071306
C14   C     C_R   0.601203 0.933845 0.556966 0.138870
C15   C     C_3   0.657873 0.923455 0.695960 -0.485365
C16   C     C_R   0.499519 0.739476 0.499185 0.877027
C17   C     C_3   0.661971 0.066413 0.694971 -0.489218
C18   C     C_R   0.507759 0.389753 0.072795 0.178518
C19   C     C_R   0.501994 0.609631 0.070851 -0.050735
C20   C     C_R   0.502480 0.609615 0.927324 -0.139941
C21   C     C_R   0.505284 0.389648 0.930345 0.197975
C22   C     C_3   0.411385 0.286576 0.927429 -0.429031
C23   C     C_R   0.930998 0.546124 0.390577 -0.247055
C24   C     C_3   0.419394 0.283319 0.080612 -0.492949
C25   C     C_R   0.740080 0.503955 0.502436 0.883402
C26   C     C_R   0.189471 0.762178 0.124152 -0.154204
C27   C     C_R   0.145314 0.714065 0.245374 -0.114360
C28   C     C_R   0.111663 0.587049 0.255880 0.076945
C29   C     C_R   0.122009 0.507214 0.142795 0.053100
C30   C     C_R   0.166942 0.557417 0.021515 -0.109811
C31   C     C_2   0.085329 0.372736 0.150873 0.316729
C32   C     C_2   0.130062 0.337747 0.694248 0.349163
C33   C     C_2   0.822388 0.716138 0.014420 0.342461
C34   C     C_R   0.873204 0.507009 0.507346 -0.088085
C35   C     C_R   0.942655 0.460898 0.620376 -0.085414
C36   C     C_R   0.067248 0.432058 0.603245 -0.050433
C37   C     C_R   0.127077 0.485893 0.491863 -0.103760
C38   C     C_R   0.057854 0.541087 0.383203 -0.075257
C39   C     C_R   0.881980 0.582360 0.821712 -0.218287
H1    H     H_    0.233494 0.721773 0.918243 0.145226
H2    H     H_    0.758206 0.102900 0.692138 0.196696
H3    H     H_    0.501437 0.698337 0.123453 0.173956
H4    H     H_    0.215131 0.860305 0.116660 0.144253
H5    H     H_    0.502463 0.698283 0.873278 0.143809
H6    H     H_    0.319541 0.319412 0.887626 0.241482
H7    H     H_    0.445829 0.198885 0.881500 0.199530
H8    H     H_    0.331989 0.309932 0.129886 0.240531
H9    H     H_    0.465033 0.196643 0.122217 0.202802
H10   H     H_    0.136064 0.775968 0.330976 0.125316
H11   H     H_    0.176056 0.499187 0.933300 0.149881
H12   H     H_    0.766806 0.483935 0.121745 0.171567
H13   H     H_    0.877341 0.583920 0.305351 0.214494
H14   H     H_    0.908548 0.667067 0.768080 0.114651
H15   H     H_    0.050060 0.333388 0.243666 0.100323
H16   H     H_    0.101745 0.325206 0.797287 0.126849
H17   H     H_    0.853516 0.799510 0.961209 0.074223
H18   H     H_    0.787384 0.278459 0.011534 0.142233
H19   H     H_    0.868910 0.264859 0.780920 0.111349
H20   H     H_    0.343911 0.118487 0.358167 0.161202
H21   H     H_    0.344351 0.887430 0.355143 0.147180
H22   H     H_    0.592859 0.884582 0.770802 0.206604
H23   H     H_    0.751527 0.878689 0.696536 0.193395
H24   H     H_    0.602334 0.110113 0.771118 0.208849
N1    N     N_R   0.499160 0.499140 0.142800 -0.114052
N2    N     N_R   0.499160 0.499180 0.857150 -0.107188
O1    O     O_R   0.500020 0.316790 0.614690 -0.595984
O2    O     O_2   0.210065 0.267588 0.651775 -0.581533
O3    O     O_2   0.775741 0.728266 0.124654 -0.597773
O4    O     O_R   0.500000 0.316760 0.385350 -0.636102
O5    O     O_R   0.316770 0.500030 0.614670 -0.602531
O6    O     O_R   0.316750 0.499990 0.385330 -0.629500
O7    O     O_R   0.500000 0.683240 0.614650 -0.638209
O8    O     O_R   0.499980 0.683210 0.385310 -0.612913
O9    O     O_R   0.683250 0.500010 0.614670 -0.610879
O10   O     O_R   0.683230 0.499970 0.385330 -0.619491
O11   O     O_2   0.094342 0.303448 0.053885 -0.616786
Zn1   Zn    Zn3+2 0.500010 0.500020 0.653130 0.964726
Zn2   Zn    Zn3+2 0.499990 0.499980 0.346870 0.962047

loop_
_geom_bond_atom_site_label_1
_geom_bond_atom_site_label_2
_ccdc_geom_bond_type
C18   C21   A    
C6    H19   S    
C35   C36   A    
C16   O7    A    
C4    O5    A    
C31   O11   D    
C26   C27   A    
C29   C30   A    
C18   C24   S    
C32   C36   S    
C36   C37   A    
C37   C38   A    
C25   O9    A    
C5    C6    A    
C34   C35   A    
C2    C39   A    
C19   C20   A    
C8    C9    A    
O9    Zn1   S    
O8    Zn2   S    
C9    C10   A    
C32   H16   S    
C19   H3    S    
C25   C34   S    
C12   C30   A    
C33   H17   S    
C30   H11   S    
C13   C14   A    
O5    Zn1   S    
O4    Zn2   S    
C7    C35   S    
C20   H5    S    
C26   H4    S    
N2    Zn1   S    
C16   O8    A    
C24   H9    S    
C20   N2    A    
C1    C9    S    
C3    H12   S    
C1    O4    A    
C12   C26   A    
C25   O10   A    
C12   H1    S    
O7    Zn1   S    
C28   C38   S    
C19   N1    A    
C23   C34   A    
C1    O1    A    
C15   H22   S    
C32   O2    D    
C2    C33   S    
C22   H7    S    
C22   C24   S    
C11   H21   S    
C15   C17   S    
O1    Zn1   S    
C28   C29   A    
C8    C14   A    
C21   N2    A    
C24   H8    S    
N1    Zn2   S    
C3    C5    A    
C6    C7    A    
C23   C38   A    
C8    C17   S    
C5    H18   S    
C10   H20   S    
C29   C31   S    
C17   H24   S    
C11   C13   A    
C18   N1    A    
C23   H13   S    
C39   H14   S    
C15   H23   S    
C2    C3    A    
O6    Zn2   S    
C31   H15   S    
O10   Zn2   S    
C17   H2    S    
C10   C11   A    
C22   H6    S    
C4    C37   S    
C13   C16   S    
C27   C28   A    
C7    C39   A    
C14   C15   S    
C21   C22   S    
C4    O6    A    
C27   H10   S    
C33   O3    D    
