data_str_m2_o10_o14_f0_pcu.sym.22
_audit_creation_date              2012-10-26T19:59:38-0400
_audit_creation_method            fapswitch 2.2
_symmetry_space_group_name_H-M    P1
_symmetry_Int_Tables_number       1
_space_group_crystal_system       triclinic
_cell_length_a                    10.738026
_cell_length_b                    8.688547
_cell_length_c                    7.491855
_cell_angle_alpha                 102.507889
_cell_angle_beta                  93.646266
_cell_angle_gamma                 92.104025
_cell_volume                      680.088304263

loop_
_atom_site_label
_atom_site_type_symbol
_atom_type_description
_atom_site_fract_x
_atom_site_fract_y
_atom_site_fract_z
_atom_type_partial_charge
C1    C     C_R   0.496538 0.200089 0.453781 0.549472
C2    C     C_R   0.509600 0.799494 0.544999 0.546998
C3    C     C_R   0.736722 0.496622 0.495751 0.522779
C4    C     C_R   0.127949 0.805827 0.664629 0.048933
C5    C     C_R   0.065935 0.945884 0.667645 -0.114959
C6    C     C_R   0.940565 0.940581 0.607428 -0.149861
C7    C     C_R   0.874499 0.795858 0.551389 -0.101896
C8    C     C_R   0.936343 0.653643 0.537735 0.019956
C9    C     C_2   0.236384 0.817729 0.798469 0.588454
C10   C     C_2   0.404558 0.315495 0.935906 0.835753
C11   C     C_R   0.067162 0.658165 0.575398 0.006217
C12   C     C_R   0.129184 0.515035 0.518969 0.022047
C13   C     C_R   0.060820 0.371456 0.455013 -0.127577
C14   C     C_R   0.931796 0.366427 0.446672 -0.145846
C15   C     C_R   0.870070 0.506380 0.488315 0.022727
C16   C     C_2   0.490102 0.032102 0.428272 -0.137068
C17   C     C_2   0.525922 0.966383 0.565862 -0.105669
C18   C     C_R   0.263220 0.510646 0.505933 0.554014
Cu1   Cu    Cu3+1 0.513920 0.517380 0.684380 1.021952
Cu2   Cu    Cu3+1 0.486080 0.482620 0.315620 0.999629
H1    H     H_    0.107900 0.262427 0.414141 0.136962
H2    H     H_    0.239175 0.414426 0.917168 0.332884
H3    H     H_    0.583152 0.636523 0.050752 0.229920
H4    H     H_    0.315807 0.743038 0.013741 0.340040
H5    H     H_    0.111618 0.059598 0.730809 0.187336
H6    H     H_    0.892499 0.048978 0.615627 0.120546
H7    H     H_    0.775418 0.795977 0.515085 0.112829
H8    H     H_    0.879827 0.253558 0.406013 0.112635
H9    H     H_    0.452390 0.962154 0.296114 0.143833
H10   H     H_    0.568974 0.035101 0.694413 0.177737
N1    N     N_2   0.465100 0.456430 0.038520 -0.193623
N2    N     N_2   0.534900 0.543570 0.961480 -0.281286
O1    O     O_R   0.509050 0.286130 0.619770 -0.485804
O2    O     O_R   0.240080 0.718433 0.922429 -0.694976
O3    O     O_2   0.457388 0.192760 0.925333 -0.451415
O4    O     O_R   0.278803 0.310185 0.873951 -0.681878
O5    O     O_R   0.485540 0.256780 0.308360 -0.476032
O6    O     O_R   0.331410 0.514680 0.655740 -0.469340
O7    O     O_R   0.307900 0.485330 0.344330 -0.509935
O8    O     O_R   0.514460 0.743220 0.691640 -0.471805
O9    O     O_R   0.490950 0.713870 0.380230 -0.545453
O10   O     O_R   0.692100 0.514670 0.655670 -0.503583
O11   O     O_R   0.668590 0.485320 0.344260 -0.514717
O12   O     O_2   0.315660 0.924756 0.813991 -0.470928

loop_
_geom_bond_atom_site_label_1
_geom_bond_atom_site_label_2
_ccdc_geom_bond_type
C11   C12   A    
C3    O10   A    
C6    C7    A    
Cu2   O5    S    
Cu1   O6    S    
H2    O4    S    
C7    H7    S    
N1    N2    D    
Cu1   O10   S    
C1    O5    A    
C18   O7    A    
H3    N2    S    
Cu2   O9    S    
C18   O6    A    
C1    O1    A    
C7    C8    A    
C1    C16   S    
C13   C14   A    
C4    C11   A    
C17   H10   S    
C3    O11   A    
C6    H6    S    
C8    C11   A    
C5    H5    S    
Cu1   N2    S    
C8    C15   A    
C9    O2    S    
C10   O3    D    
Cu1   O8    S    
C2    O9    A    
C13   H1    S    
C2    O8    A    
Cu2   O11   S    
C3    C15   S    
C12   C13   A    
C16   H9    S    
Cu1   O1    S    
C12   C18   S    
C5    C6    A    
Cu2   O7    S    
C14   C15   A    
C16   C17   D    
C9    O12   D    
C10   O4    S    
C14   H8    S    
C4    C9    S    
C10   N1    S    
H4    O2    S    
Cu1   Cu2   S    
C4    C5    A    
C2    C17   S    
Cu2   N1    S    
