data_str_m4_o1_o15_f0_acs.sym.108
_audit_creation_date              2012-12-11T14:45:52-0500
_audit_creation_method            fapswitch 2.2
_symmetry_space_group_name_H-M    P1
_symmetry_Int_Tables_number       1
_space_group_crystal_system       triclinic
_cell_length_a                    10.871698
_cell_length_b                    10.905223
_cell_length_c                    18.798969
_cell_angle_alpha                 90.936766
_cell_angle_beta                  89.739294
_cell_angle_gamma                 119.50457
_cell_volume                      1939.46333428

loop_
_atom_site_label
_atom_site_type_symbol
_atom_type_description
_atom_site_fract_x
_atom_site_fract_y
_atom_site_fract_z
_atom_type_partial_charge
C1    C     C_R   0.864861 0.638842 0.603455 0.527473
C2    C     C_R   0.254154 0.523195 0.799074 -0.018619
C3    C     C_R   0.224920 0.506413 0.726796 -0.153740
C4    C     C_R   0.238272 0.619142 0.686977 -0.002734
C5    C     C_R   0.782753 0.059428 0.810634 -0.035752
C6    C     C_R   0.989177 0.015520 0.795061 -0.074641
C7    C     C_R   0.079592 0.995102 0.749853 -0.113388
C8    C     C_R   0.077032 0.014796 0.677498 -0.107252
C9    C     C_R   0.990478 0.063649 0.650775 -0.095513
C10   C     C_R   0.905849 0.095263 0.696792 -0.005272
C11   C     C_R   0.892809 0.056600 0.769101 -0.001877
C12   C     C_R   0.208444 0.595864 0.610817 0.558294
C13   C     C_R   0.741741 0.185467 0.718744 0.011799
C14   C     C_R   0.691577 0.100861 0.777437 0.017524
C15   C     C_R   0.690574 0.280954 0.707083 -0.075797
C16   C     C_R   0.568910 0.265211 0.739768 -0.108175
C17   C     C_R   0.497897 0.155465 0.786007 -0.125814
C18   C     C_R   0.559140 0.074729 0.804798 -0.082620
C19   C     C_R   0.838648 0.170273 0.673780 -0.024562
C20   C     C_R   0.731885 0.674158 0.702083 -0.142586
C21   C     C_R   0.712129 0.678745 0.775087 -0.119838
C22   C     C_R   0.799751 0.658519 0.822912 0.039340
C23   C     C_R   0.863085 0.231660 0.603731 0.531048
C24   C     C_R   0.901895 0.627395 0.798409 -0.134525
C25   C     C_R   0.918126 0.618929 0.725932 -0.132783
C26   C     C_R   0.837884 0.647580 0.677932 0.030985
C27   C     C_R   0.384323 0.585488 0.294099 -0.132292
C28   C     C_R   0.423335 0.605595 0.223663 -0.128284
C29   C     C_R   0.438429 0.723908 0.187956 0.023200
C30   C     C_R   0.429699 0.830443 0.226705 -0.072814
C31   C     C_R   0.385693 0.808183 0.297957 -0.088871
C32   C     C_R   0.355172 0.681409 0.330592 0.016595
C33   C     C_R   0.778539 0.269537 0.272360 -0.130614
C34   C     C_R   0.865382 0.639097 0.397396 0.547078
C35   C     C_R   0.765368 0.234258 0.200988 -0.123049
C36   C     C_R   0.855484 0.191150 0.168959 0.024483
C37   C     C_R   0.971443 0.204064 0.207208 -0.121245
C38   C     C_R   0.987141 0.243685 0.278947 -0.124838
C39   C     C_R   0.885305 0.268499 0.312617 0.023627
C40   C     C_R   0.940011 0.769042 0.287645 -0.105640
C41   C     C_R   0.945733 0.765692 0.214678 0.261779
C42   C     C_R   0.824031 0.664324 0.176603 0.021041
C43   C     C_R   0.711431 0.556227 0.213853 -0.190923
C44   C     C_R   0.716218 0.551861 0.287785 -0.163728
C45   C     C_R   0.276177 0.635549 0.397496 0.552751
C46   C     C_R   0.831915 0.657987 0.324846 -0.019724
C47   C     C_R   0.765094 0.034656 0.888158 0.546182
C48   C     C_R   0.386531 0.695892 0.898720 0.539832
C49   C     C_R   0.795414 0.690904 0.896912 0.533919
C50   C     C_R   0.809855 0.111941 0.101550 0.552317
C51   C     C_R   0.461936 0.729545 0.110820 0.571351
C52   C     C_R   0.800051 0.694675 0.104214 0.556908
C53   C     C_R   0.888597 0.294991 0.389073 0.572839
C54   C     C_R   0.261960 0.743757 0.721987 -0.142327
C55   C     C_R   0.286157 0.759136 0.795154 -0.169820
C56   C     C_R   0.301472 0.657429 0.832385 0.004231
Cr1   Cr    Cr6+3 0.791660 0.390250 0.499930 1.006680
Cr2   Cr    Cr6+3 0.098520 0.708290 0.500540 1.011014
Cr3   Cr    Cr6+3 0.109770 0.401430 0.499480 1.003504
Cr4   Cr    Cr6+3 0.874790 0.925890 0.000070 1.072924
Cr5   Cr    Cr6+3 0.574120 0.948670 0.999300 1.010075
Cr6   Cr    Cr6+3 0.551420 0.625320 0.000920 1.040543
H1    H     H_    0.258746 0.827462 0.693316 0.141075
H2    H     H_    0.528989 0.336207 0.728185 0.128739
H3    H     H_    0.743730 0.368444 0.673001 0.165975
H4    H     H_    0.400348 0.137958 0.810459 0.120794
H5    H     H_    0.667219 0.693177 0.665118 0.121482
H6    H     H_    0.633695 0.704998 0.794392 0.116759
H7    H     H_    0.968535 0.610380 0.835013 0.129193
H8    H     H_    0.989690 0.585016 0.706551 0.109492
H9    H     H_    0.366778 0.488469 0.317998 0.138038
H10   H     H_    0.434066 0.523556 0.196147 0.140198
H11   H     H_    0.450182 0.926826 0.201086 0.174698
H12   H     H_    0.294218 0.850592 0.822215 0.107586
H13   H     H_    0.369652 0.886274 0.326374 0.162086
H14   H     H_    0.701003 0.291322 0.296795 0.134126
H15   H     H_    0.676963 0.230248 0.172564 0.147056
H16   H     H_    0.045584 0.177883 0.182863 0.189371
H17   H     H_    0.074603 0.248265 0.308515 0.143629
H18   H     H_    0.029723 0.852604 0.315558 0.184840
H19   H     H_    0.619492 0.475984 0.185807 0.134445
H20   H     H_    0.631504 0.465102 0.315695 0.131471
H21   H     H_    0.192721 0.404988 0.701260 0.139653
H22   H     H_    0.150135 0.961237 0.771094 0.105547
H23   H     H_    0.144243 0.994731 0.642162 0.132735
H24   H     H_    0.001755 0.001309 0.849668 0.193783
H25   H     H_    0.990772 0.075218 0.593872 0.143111
H26   H     H_    0.506201 0.997953 0.844132 0.162189
O1    O     O_R   0.766500 0.250040 0.579790 -0.516763
O2    O     O_R   0.218690 0.701900 0.425960 -0.491209
O3    O     O_R   0.249490 0.516440 0.419420 -0.530190
O4    O     O_R   0.982880 0.281910 0.424890 -0.503842
O5    O     O_3   0.999980 0.499990 0.499980 -0.285861
O6    O     O_R   0.895110 0.806860 0.920430 -0.544869
O7    O     O_R   0.872260 0.046970 0.925000 -0.497731
O8    O     O_R   0.691430 0.085060 0.918550 -0.509723
O9    O     O_R   0.451490 0.822460 0.925250 -0.539752
O10   O     O_R   0.413330 0.603360 0.920440 -0.491715
O11   O     O_R   0.676110 0.626250 0.926750 -0.493724
O12   O     O_R   0.798570 0.516780 0.574780 -0.520972
O13   O     O_R   0.895350 0.809870 0.080950 -0.426547
O14   O     O_R   0.872490 0.049760 0.073800 -0.469590
O15   O     O_R   0.691680 0.088070 0.079070 -0.532453
O16   O     O_R   0.451720 0.825250 0.074050 -0.492678
O17   O     O_R   0.413580 0.606370 0.080960 -0.496562
O18   O     O_R   0.676340 0.629040 0.075550 -0.536544
O19   O     O_3   0.666780 0.833290 0.000090 -0.306478
O20   O     O_R   0.984000 0.732950 0.581090 -0.526109
O21   O     O_R   0.218600 0.700890 0.574760 -0.499634
O22   O     O_R   0.249390 0.515350 0.579940 -0.512089
O23   O     O_R   0.982790 0.280900 0.573700 -0.527058
O24   O     O_R   0.766600 0.251130 0.419260 -0.510335
O25   O     O_R   0.798660 0.517790 0.425980 -0.514998
O26   O     O_R   0.984100 0.734040 0.420570 -0.520669
S1    S     S_3+6 0.113316 0.881974 0.175999 -0.003710
O27   O     O_2   0.112319 0.005871 0.142941 -0.299453
O28   O     O_2   0.226724 0.937943 0.231941 -0.348622
O29   O     O_3   0.150526 0.793270 0.113381 -0.497522
H27   H     H_    0.223015 0.866872 0.082933 0.369069
C57   C     C_1   0.235141 0.400268 0.836595 0.237496
N1    N     N_1   0.220396 0.302259 0.866725 -0.296911

loop_
_geom_bond_atom_site_label_1
_geom_bond_atom_site_label_2
_ccdc_geom_bond_type
C55   C56   A    
Cr2   O21   S    
C41   C42   A    
C14   C18   A    
C20   H5    S    
C35   C36   A    
C12   O22   A    
Cr5   O8    S    
C27   H9    S    
C7    C8    A    
Cr6   O17   S    
C39   C53   S    
C34   O25   A    
C40   C46   A    
C48   O9    A    
C5    C47   S    
C17   H4    S    
C33   C39   A    
Cr1   O1    S    
C28   C29   A    
Cr5   O15   S    
Cr2   O5    S    
C5    C11   A    
C44   H20   S    
C30   C31   A    
Cr1   O24   S    
C54   H1    S    
C15   C16   A    
C15   H3    S    
Cr3   O22   S    
C8    H23   S    
C32   C45   S    
O29   H27   S    
Cr6   O10   S    
C55   H12   S    
C8    C9    A    
S1    O28   D    
Cr3   O23   S    
C47   O8    A    
C23   O1    A    
C34   C46   S    
C49   O6    A    
C4    C12   S    
C29   C30   A    
C9    C10   A    
C7    H22   S    
C52   O18   A    
C50   O15   A    
Cr1   O5    S    
C21   C22   A    
C28   H10   S    
C41   S1    S    
Cr4   O14   S    
C1    O12   A    
C12   O21   A    
C25   C26   A    
C44   C46   A    
C24   H7    S    
C52   O13   A    
C13   C19   A    
Cr5   O16   S    
C24   C25   A    
C6    C11   A    
C30   H11   S    
C2    C57   S    
C16   C17   A    
Cr1   O25   S    
Cr6   O19   S    
C51   O16   A    
Cr1   O12   S    
C35   H15   S    
C18   H26   S    
C19   C23   S    
C43   C44   A    
C37   C38   A    
C16   H2    S    
C49   O11   A    
C33   H14   S    
C31   H13   S    
C31   C32   A    
C10   C19   A    
C51   O17   A    
S1    O29   S    
C53   O4    A    
C40   H18   S    
C17   C18   A    
Cr3   O3    S    
C45   O2    A    
Cr2   O2    S    
C5    C14   A    
Cr4   O19   S    
C22   C49   S    
C53   O24   A    
C40   C41   A    
C50   O14   A    
C13   C15   A    
C21   H6    S    
C3    H21   S    
C1    C26   S    
C43   H19   S    
C22   C24   A    
C42   C43   A    
Cr4   O13   S    
C36   C50   S    
C57   N1    T    
C29   C51   S    
C48   C56   S    
C54   C55   A    
C36   C37   A    
C4    C54   A    
C27   C32   A    
Cr5   O9    S    
C6    C7    A    
Cr6   O18   S    
C34   O26   A    
C48   O10   A    
C37   H16   S    
C6    H24   S    
C2    C3    A    
C23   O23   A    
C2    C56   A    
C9    H25   S    
S1    O27   D    
C38   C39   A    
C20   C26   A    
C33   C35   A    
Cr2   O20   S    
Cr3   O4    S    
C45   O3    A    
C10   C11   A    
C1    O20   A    
Cr6   O11   S    
Cr4   O7    S    
C20   C21   A    
C38   H17   S    
Cr5   O19   S    
C27   C28   A    
Cr2   O26   S    
C47   O7    A    
C25   H8    S    
Cr3   O5    S    
C13   C14   A    
C3    C4    A    
C42   C52   S    
Cr4   O6    S    
