data_str_m9_o11_o16_f0_sra.sym.50
_audit_creation_date              2012-12-11T14:17:45-0500
_audit_creation_method            fapswitch 2.2
_symmetry_space_group_name_H-M    P1
_symmetry_Int_Tables_number       1
_space_group_crystal_system       triclinic
_cell_length_a                    6.945822
_cell_length_b                    13.63701
_cell_length_c                    20.409126
_cell_angle_alpha                 102.154971
_cell_angle_beta                  89.91008
_cell_angle_gamma                 90.690196
_cell_volume                      1889.6812029

loop_
_atom_site_label
_atom_site_type_symbol
_atom_type_description
_atom_site_fract_x
_atom_site_fract_y
_atom_site_fract_z
_atom_type_partial_charge
O1    O     O_R   0.506860 0.599390 0.449240 -0.539453
O2    O     O_R   0.180220 0.594600 0.586780 -0.543328
O3    O     O_R   0.004500 0.400610 0.550760 -0.538437
C1    C     C_R   0.349022 0.615992 0.613489 0.742867
O4    O     O_R   0.177490 0.611290 0.451970 -0.541585
O5    O     O_R   0.001750 0.417420 0.414990 -0.539542
C2    C     C_R   0.347009 0.637803 0.435121 0.695534
O6    O     O_R   0.509610 0.582580 0.585010 -0.542543
O7    O     O_3   0.337420 0.436370 0.488020 -0.372532
V1    V     V_3+5 0.064680 0.511800 0.502220 1.420837
O8    O     O_R   0.671710 0.405400 0.413220 -0.547023
C3    C     C_R   0.839800 0.384067 0.386535 0.740763
O9    O     O_R   0.674440 0.388710 0.548030 -0.541217
C4    C     C_R   0.842455 0.362152 0.564841 0.698007
V2    V     V_3+5 0.564010 0.488200 0.497780 1.417385
O10   O     O_3   0.841140 0.563630 0.511980 -0.372986
C5    C     C_R   0.840149 0.111074 0.612523 -0.159081
H1    H     H_    0.832435 0.161255 0.519761 0.104400
H2    H     H_    0.841332 0.985729 0.695603 0.120579
H3    H     H_    0.833925 0.032688 0.587457 0.112986
C6    C     C_R   0.848247 0.285257 0.604929 -0.032171
C7    C     C_R   0.871543 0.315594 0.928807 -0.167942
C8    C     C_R   0.871579 0.391763 0.893117 -0.062562
C9    C     C_R   0.865718 0.369018 0.823304 -0.146185
C10   C     C_R   0.859475 0.268193 0.787048 0.067506
C11   C     C_R   0.858257 0.190391 0.824102 0.068584
C12   C     C_R   0.854602 0.241967 0.715429 0.075377
C13   C     C_R   0.847265 0.138950 0.682758 0.143367
C14   C     C_R   0.846484 0.064342 0.720233 -0.204755
C15   C     C_R   0.852168 0.089430 0.789707 -0.195203
C16   C     C_R   0.856170 0.314245 0.674820 -0.208996
C17   C     C_R   0.839664 0.183886 0.573877 -0.175682
C18   C     C_R   0.864478 0.215250 0.895082 -0.078714
H4    H     H_    0.861695 0.393677 0.695634 0.097746
H5    H     H_    0.877454 0.334926 0.983071 0.110741
H6    H     H_    0.866420 0.432293 0.799447 0.120317
H7    H     H_    0.876865 0.469310 0.919786 0.162877
H8    H     H_    0.851486 0.028577 0.816282 0.113791
C19   C     C_2   0.005411 0.288735 0.285018 -0.133498
C20   C     C_2   0.842217 0.315651 0.319768 -0.310235
H9    H     H_    0.142614 0.317331 0.306971 0.133795
H10   H     H_    0.703546 0.287475 0.299499 0.126172
C21   C     C_2   0.013716 0.220551 0.217433 -0.132045
C22   C     C_2   0.858564 0.183389 0.180327 -0.303656
H11   H     H_    0.156557 0.201095 0.197516 0.131153
H12   H     H_    0.714440 0.202082 0.198643 0.125621
C23   C     C_2   0.204477 0.790243 0.782549 -0.120609
C24   C     C_2   0.363640 0.815460 0.820025 -0.263802
H13   H     H_    0.066719 0.820222 0.802003 0.130723
H14   H     H_    0.502174 0.785719 0.801920 0.127025
C25   C     C_2   0.202787 0.721743 0.715042 -0.125984
C26   C     C_2   0.360957 0.684191 0.680269 -0.306889
H15   H     H_    0.061523 0.702398 0.693026 0.134466
H16   H     H_    0.504055 0.703104 0.700248 0.126100
C27   C     C_R   0.404164 0.887042 0.386603 -0.160426
H17   H     H_    0.401151 0.837170 0.479528 0.104424
H18   H     H_    0.429495 0.011320 0.303111 0.119381
H19   H     H_    0.427349 0.964739 0.411392 0.113768
C28   C     C_R   0.358764 0.714370 0.394807 -0.032816
C29   C     C_R   0.325024 0.683660 0.070703 0.375186
C30   C     C_R   0.309226 0.608478 0.107099 -0.145612
C31   C     C_R   0.320808 0.631278 0.176773 -0.233707
C32   C     C_R   0.349115 0.731241 0.212584 0.086343
C33   C     C_R   0.366402 0.808292 0.175213 0.010601
C34   C     C_R   0.360752 0.757298 0.284140 0.089541
C35   C     C_R   0.390539 0.859415 0.316468 0.137939
C36   C     C_R   0.407007 0.933362 0.278749 -0.198153
C37   C     C_R   0.394956 0.908474 0.209372 -0.173884
C38   C     C_R   0.344329 0.685681 0.325020 -0.213571
C39   C     C_R   0.389048 0.814817 0.425502 -0.175654
C40   C     C_R   0.353919 0.783736 0.104228 -0.163642
H20   H     H_    0.321563 0.606923 0.304515 0.094720
H21   H     H_    0.306921 0.568565 0.200897 0.127683
H22   H     H_    0.287184 0.531286 0.081182 0.153385
H23   H     H_    0.408592 0.968956 0.182721 0.108752
O11   O     O_R   0.203230 0.917310 0.915020 -0.536291
O12   O     O_R   0.535500 0.888690 0.048040 -0.535861
O13   O     O_R   0.711080 0.082610 0.085000 -0.549317
C41   C     C_R   0.365992 0.862116 0.064844 0.779895
O14   O     O_R   0.532630 0.905370 0.913230 -0.545204
O15   O     O_R   0.708190 0.099410 0.949230 -0.542761
C42   C     C_R   0.364377 0.884117 0.886558 0.784306
O16   O     O_R   0.206120 0.900510 0.050790 -0.533200
O17   O     O_3   0.375360 0.063570 0.011990 -0.383511
V3    V     V_3+5 0.648170 0.988200 0.997780 1.460410
O18   O     O_R   0.038240 0.111390 0.951940 -0.543843
C43   C     C_R   0.870234 0.137780 0.935061 0.681006
O19   O     O_R   0.041120 0.094710 0.086750 -0.546131
C44   C     C_R   0.872493 0.115727 0.113522 0.733972
V4    V     V_3+5 0.148810 0.011930 0.002180 1.453590
O20   O     O_3   0.871750 0.936430 0.988010 -0.362405
Cl1   Cl    Cl    0.307601 0.649901 0.982628 -0.680977

loop_
_geom_bond_atom_site_label_1
_geom_bond_atom_site_label_2
_ccdc_geom_bond_type
C32   C34   A    
C1    O6    A    
C40   C41   S    
V3    O20   S    
C23   H13   S    
C37   H23   S    
C7    H5    S    
C6    C16   A    
C31   C32   A    
C1    C26   S    
C33   C37   A    
C4    C6    S    
C13   C14   A    
O5    C3    A    
V2    O10   S    
C5    H3    S    
C15   H8    S    
C33   C40   A    
O16   V4    S    
O8    V2    S    
C22   H12   S    
C8    C9    A    
C31   H21   S    
O1    V2    S    
C14   C15   A    
O7    V1    S    
C20   H10   S    
C35   C36   A    
O12   V3    S    
O9    C4    A    
O17   V4    S    
H18   C36   S    
C2    C28   S    
C26   H16   S    
O12   C41   A    
O13   C44   A    
C6    C17   A    
C12   C16   A    
C25   C26   D    
C9    C10   A    
O14   C42   A    
O18   V4    S    
O11   C42   A    
C19   C20   D    
O4    C2    A    
O18   C43   A    
C19   C21   S    
C29   C40   A    
C10   C11   A    
C8    H7    S    
C36   C37   A    
C29   C30   A    
C25   H15   S    
C3    C20   S    
C38   H20   S    
O2    C1    A    
C21   C22   D    
O14   V3    S    
C11   C18   A    
C23   C24   D    
C16   H4    S    
C9    H6    S    
O17   V3    S    
C21   H11   S    
O15   C43   A    
O3    C4    A    
C28   C38   A    
O13   V3    S    
O19   V4    S    
C11   C15   A    
O6    V2    S    
H17   C39   S    
O9    V2    S    
H1    C17   S    
O2    V1    S    
C27   C35   A    
C7    C18   A    
O1    C2    A    
C5    C13   A    
O5    V1    S    
C23   C25   S    
O8    C3    A    
C30   H22   S    
C10   C12   A    
O7    V2    S    
O4    V1    S    
O3    V1    S    
V1    O10   S    
C41   O16   A    
V4    O20   S    
C34   C38   A    
C24   H14   S    
C24   C42   S    
C18   C43   S    
C30   C31   A    
C27   C39   A    
C28   C39   A    
C32   C33   A    
O19   C44   A    
C19   H9    S    
C34   C35   A    
C27   H19   S    
C12   C13   A    
C5    C17   A    
C7    C8    A    
C29   Cl1   S    
O15   V3    S    
C22   C44   S    
O11   V4    S    
H2    C14   S    
