data_str_m12_o4_o9_f0_bcu.sym.30
_audit_creation_date              2012-12-11T17:10:32-0500
_audit_creation_method            fapswitch 2.2
_symmetry_space_group_name_H-M    P1
_symmetry_Int_Tables_number       1
_space_group_crystal_system       triclinic
_cell_length_a                    15.079367
_cell_length_b                    14.8282
_cell_length_c                    15.117583
_cell_angle_alpha                 109.029532
_cell_angle_beta                  111.309238
_cell_angle_gamma                 108.870683
_cell_volume                      2575.17628533

loop_
_atom_site_label
_atom_site_type_symbol
_atom_type_description
_atom_site_fract_x
_atom_site_fract_y
_atom_site_fract_z
_atom_type_partial_charge
C1    C     C_R   0.185953 0.277137 0.251754 -0.093575
C2    C     C_R   0.407987 0.499885 0.197464 -0.146896
C3    C     C_R   0.553315 0.816666 0.592118 -0.128956
C4    C     C_R   0.538545 0.444910 0.760226 0.021628
C5    C     C_R   0.726799 0.471620 0.413865 -0.147317
C6    C     C_R   0.524539 0.828966 0.499738 -0.031435
C7    C     C_R   0.829250 0.546741 0.510447 0.036389
C8    C     C_R   0.437060 0.438172 0.137068 0.040519
C9    C     C_R   0.801519 0.800081 0.871776 -0.075046
C10   C     C_R   0.195192 0.780749 0.345936 -0.081791
C11   C     C_R   0.174176 0.737392 0.410176 -0.075827
C12   C     C_R   0.464789 0.462506 0.787472 -0.055654
C13   C     C_R   0.069157 0.650294 0.367126 0.126384
C14   C     C_R   0.986039 0.607012 0.258238 -0.150570
C15   C     C_R   0.007978 0.649595 0.193815 -0.052752
C16   C     C_R   0.510071 0.203411 0.409675 -0.142685
C17   C     C_R   0.112395 0.736541 0.237692 -0.067892
C18   C     C_R   0.950766 0.599189 0.442210 -0.236171
C19   C     C_R   0.935746 0.579796 0.521893 0.076819
C20   C     C_R   0.019300 0.579818 0.604339 0.012600
C21   C     C_R   0.104556 0.578864 0.592842 -0.207897
C22   C     C_R   0.116388 0.589380 0.509016 0.067256
C23   C     C_R   0.578632 0.204991 0.500917 0.081323
C24   C     C_R   0.044760 0.610087 0.438288 -0.005728
C25   C     C_R   0.081628 0.679869 0.802009 -0.173935
C26   C     C_R   0.107164 0.682385 0.901747 -0.125753
C27   C     C_R   0.078203 0.584399 0.904652 -0.038449
C28   C     C_R   0.296635 0.600792 0.590396 -0.235149
C29   C     C_R   0.024343 0.483900 0.807933 -0.040060
C30   C     C_R   0.996983 0.480684 0.707550 -0.146310
C31   C     C_R   0.024924 0.578823 0.703854 0.103759
C32   C     C_R   0.540710 0.477339 0.963412 0.146539
C33   C     C_R   0.447047 0.443918 0.867769 -0.096383
C34   C     C_R   0.202081 0.571175 0.499961 -0.108244
C35   C     C_R   0.341875 0.396364 0.854560 -0.045879
C36   C     C_R   0.336645 0.392305 0.944189 -0.172559
C37   C     C_R   0.434260 0.433782 0.041434 0.025609
C38   C     C_R   0.534352 0.470958 0.048165 0.251635
C39   C     C_3   0.639617 0.577457 0.132660 -0.560958
C40   C     C_R   0.601867 0.294148 0.590654 -0.143345
C41   C     C_3   0.646659 0.585224 0.037757 -0.447912
C42   C     C_R   0.540081 0.933264 0.401791 0.022431
C43   C     C_R   0.569057 0.932895 0.500502 0.024819
C44   C     C_R   0.648582 0.032846 0.599249 -0.151387
C45   C     C_R   0.448489 0.723712 0.407783 0.008943
C46   C     C_R   0.681763 0.132408 0.598994 -0.068281
C47   C     C_R   0.624163 0.131012 0.500542 -0.174385
C48   C     C_R   0.566738 0.032301 0.401199 0.187084
C49   C     C_3   0.611467 0.002161 0.329392 0.357839
C50   C     C_3   0.580459 0.894540 0.328417 -0.621356
C51   C     C_R   0.974140 0.076610 0.116550 0.151109
C52   C     C_R   0.199838 0.505300 0.408726 0.537161
C53   C     C_R   0.069695 0.073428 0.169523 0.052077
C54   C     C_R   0.063460 0.971033 0.144676 -0.202316
C55   C     C_R   0.966385 0.874579 0.056641 -0.212899
C56   C     C_R   0.814026 0.566885 0.596924 -0.108777
C57   C     C_R   0.877987 0.881187 0.989349 0.067485
C58   C     C_R   0.878854 0.981062 0.026545 0.161748
C59   C     C_3   0.810002 0.005141 0.070652 -0.489314
C60   C     C_3   0.913289 0.108690 0.167911 -0.497691
C61   C     C_R   0.441544 0.532639 0.754556 -0.134838
C62   C     C_R   0.276998 0.184509 0.251511 -0.121572
C63   C     C_R   0.174623 0.174191 0.226177 0.017543
C64   C     C_2   0.508714 0.307633 0.154929 0.479956
C65   C     C_2   0.609591 0.404605 0.808101 0.440734
C66   C     C_2   0.239653 0.353951 0.750828 0.511594
C67   C     C_R   0.494078 0.403229 0.197530 -0.055795
C68   C     C_2   0.776700 0.235563 0.699419 0.539205
C69   C     C_2   0.357643 0.695155 0.302833 0.416573
C70   C     C_R   0.709146 0.799164 0.805100 -0.219149
C71   C     C_R   0.799820 0.707910 0.805954 0.498499
H1    H     H_    0.121897 0.297179 0.241445 0.158887
H2    H     H_    0.904449 0.539945 0.222961 0.112820
H3    H     H_    0.943786 0.615599 0.110034 0.140484
H4    H     H_    0.889868 0.607411 0.384692 0.125974
H5    H     H_    0.160950 0.566000 0.649699 0.139313
H6    H     H_    0.107914 0.756705 0.801360 0.124978
H7    H     H_    0.150490 0.760435 0.976957 0.114905
H8    H     H_    0.099146 0.586523 0.982093 0.127159
H9    H     H_    0.006171 0.408792 0.811390 0.154782
H10   H     H_    0.958261 0.402645 0.633697 0.122470
H11   H     H_    0.488461 0.154317 0.326436 0.136607
H12   H     H_    0.874278 0.625387 0.681878 0.140628
H13   H     H_    0.258645 0.359819 0.939721 0.178474
H14   H     H_    0.627436 0.642324 0.180406 0.202307
H15   H     H_    0.704732 0.565199 0.182856 0.198184
H16   H     H_    0.638109 0.654322 0.029627 0.197887
H17   H     H_    0.716884 0.578830 0.034337 0.221683
H18   H     H_    0.685339 0.034091 0.676053 0.162556
H19   H     H_    0.701513 0.057872 0.369522 0.059855
H20   H     H_    0.513072 0.821289 0.246793 0.210255
H21   H     H_    0.331361 0.661526 0.674736 0.136467
H22   H     H_    0.652868 0.886263 0.369616 0.183020
H23   H     H_    0.676368 0.849999 0.832403 0.132669
H24   H     H_    0.134958 0.965760 0.187946 0.126300
H25   H     H_    0.964440 0.797245 0.038980 0.163974
H26   H     H_    0.750913 0.021575 0.018155 0.197657
H27   H     H_    0.772990 0.943866 0.092118 0.196012
H28   H     H_    0.914258 0.185166 0.171673 0.203223
H29   H     H_    0.937024 0.108293 0.246539 0.199415
H30   H     H_    0.666144 0.329454 0.672998 0.152063
H31   H     H_    0.393474 0.569193 0.770036 0.108983
H32   H     H_    0.297965 0.120243 0.241375 0.106325
H33   H     H_    0.536399 0.274949 0.207289 0.016341
H34   H     H_    0.354325 0.529623 0.167091 0.157050
H35   H     H_    0.936934 0.717677 0.878255 0.290365
H36   H     H_    0.575525 0.333110 0.816002 0.028622
H37   H     H_    0.242601 0.351904 0.679622 0.013480
H38   H     H_    0.811805 0.308574 0.694315 0.002341
H39   H     H_    0.582646 0.968515 0.184255 0.320857
H40   H     H_    0.057301 0.458159 0.292945 0.304275
H41   H     H_    0.362655 0.751305 0.271543 0.023048
H42   H     H_    0.606338 0.880258 0.677559 0.110863
H43   H     H_    0.710569 0.438398 0.331194 0.096755
H44   H     H_    0.129082 0.769782 0.187906 0.088606
H45   H     H_    0.275905 0.848568 0.380085 0.093930
H46   H     H_    0.239115 0.773509 0.494225 0.104172
N1    N     N_R   0.291070 0.347930 0.293870 -0.032843
N2    N     N_R   0.497240 0.291100 0.443210 -0.055153
N3    N     N_R   0.347890 0.554050 0.556810 -0.069523
N4    N     N_R   0.554050 0.347900 0.556830 -0.048091
N5    N     N_R   0.291070 0.497250 0.443190 -0.076235
N6    N     N_R   0.497240 0.554030 0.706140 -0.046910
N7    N     N_R   0.347890 0.291110 0.293870 -0.055641
N8    N     N_R   0.445950 0.652100 0.443170 -0.040807
N9    N     N_R   0.708930 0.502750 0.556810 -0.035387
N10   N     N_R   0.502760 0.445970 0.293860 -0.084043
N11   N     N_R   0.652110 0.708890 0.706130 -0.067279
N12   N     N_R   0.708930 0.652070 0.706130 -0.074809
N13   N     N_R   0.445950 0.502780 0.293850 -0.042821
N14   N     N_R   0.502760 0.708900 0.556790 -0.050538
N15   N     N_R   0.652110 0.445950 0.443190 -0.054185
N16   N     N_R   0.554050 0.497220 0.706150 -0.041668
Ni1   Ni    Ni4+2 0.369690 0.500010 0.369700 0.304079
Ni2   Ni    Ni4+2 0.630310 0.499990 0.630300 0.288696
Ni3   Ni    Ni4+2 0.500000 0.369720 0.369720 0.197777
Ni4   Ni    Ni4+2 0.500000 0.630280 0.630280 0.195738
O1    O     O_2   0.487773 0.262752 0.060743 -0.579987
O2    O     O_3   0.859105 0.660956 0.841623 -0.740162
O3    O     O_2   0.708504 0.456047 0.846331 -0.557517
O4    O     O_2   0.150406 0.320176 0.743387 -0.599496
O5    O     O_2   0.817502 0.239935 0.787902 -0.572613
O6    O     O_3   0.547945 0.988186 0.226387 -0.746825
O7    O     O_3   0.128265 0.468123 0.300615 -0.733316
O8    O     O_2   0.270923 0.608595 0.252218 -0.539827

loop_
_geom_bond_atom_site_label_1
_geom_bond_atom_site_label_2
_ccdc_geom_bond_type
N8    Ni1   S    
C25   C31   A    
C18   H4    S    
C6    C45   A    
C5    H43   S    
C27   C29   A    
C53   C63   S    
C69   O8    D    
C35   C36   A    
C49   H19   S    
N11   Ni4   S    
C60   H28   S    
N11   N12   A    
C25   H6    S    
C62   N7    A    
H35   O2    S    
C39   C41   S    
C66   O4    D    
C64   O1    D    
C53   C54   A    
C40   N4    A    
C21   H5    S    
C26   C27   A    
C62   C63   A    
N6    N16   A    
C18   C24   A    
C36   C37   A    
C70   H23   S    
C37   C38   A    
C27   H8    S    
C4    C65   S    
C69   H41   S    
C10   C17   A    
C23   C40   A    
C15   C17   A    
C18   C19   A    
C46   C47   A    
N5    Ni1   S    
C33   C35   A    
C40   H30   S    
N12   Ni2   S    
C65   O3    D    
C52   N5    A    
C5    N15   A    
C19   C20   A    
C44   C46   A    
C32   C41   S    
C68   O5    D    
C32   C38   A    
C4    C12   A    
C9    C57   S    
N1    Ni1   S    
C1    N1    A    
C3    C6    A    
C28   C34   A    
C59   C60   S    
C13   C14   A    
N13   Ni1   S    
C7    C56   A    
C41   H16   S    
C1    C63   A    
N3    N5    A    
N2    N4    A    
C22   C34   S    
C1    H1    S    
C23   C47   S    
N7    Ni3   S    
C45   C69   S    
C64   C67   S    
C9    C70   A    
C28   N3    A    
C16   N2    A    
C45   N8    A    
C5    C7    A    
N1    N7    A    
C35   C66   S    
C58   C59   S    
N4    Ni2   S    
C13   C24   S    
C51   C53   A    
C43   C44   A    
C14   H2    S    
C46   C68   S    
C29   C30   A    
N14   Ni4   S    
C67   N10   A    
C71   N12   A    
N8    N14   A    
C47   C48   A    
N9    N15   A    
C30   C31   A    
N15   Ni3   S    
C16   H11   S    
C28   H21   S    
C51   C58   A    
C42   C48   A    
N10   Ni3   S    
C54   H24   S    
H40   O7    S    
C42   C50   S    
C48   C49   S    
N9    Ni2   S    
C16   C23   A    
C7    C19   S    
C6    C43   S    
C52   O7    S    
C3    H42   S    
C26   H7    S    
C59   H26   S    
C3    N14   A    
C42   C43   A    
C39   H14   S    
C56   N9    A    
C11   H46   S    
C10   H45   S    
C17   H44   S    
C56   H12   S    
C62   H32   S    
C70   N11   A    
C64   H33   S    
C41   H17   S    
C54   C55   A    
C2    C8    A    
C9    C71   A    
C66   H37   S    
C55   H25   S    
C60   H29   S    
C71   O2    S    
C50   H22   S    
C51   C60   S    
N6    Ni4   S    
C2    H34   S    
C34   C52   A    
N2    Ni3   S    
C61   N6    A    
C32   C33   A    
C30   H10   S    
C55   C57   A    
C61   H31   S    
C25   C26   A    
N10   N13   A    
C12   C61   A    
C11   C13   A    
C57   C58   A    
C38   C39   S    
C29   H9    S    
C36   H13   S    
C49   O6    S    
C2    N13   A    
C22   C24   A    
C68   H38   S    
H39   O6    S    
C10   C11   A    
C50   H20   S    
C15   H3    S    
C20   C21   A    
C8    C67   A    
C49   C50   S    
C8    C37   S    
N16   Ni2   S    
C59   H27   S    
C14   C15   A    
N3    Ni4   S    
C39   H15   S    
C12   C33   S    
C21   C22   A    
C65   H36   S    
C44   H18   S    
C4    N16   A    
C20   C31   S    
