data_str_m9_o4_o2_f0_sra.sym.14
_audit_creation_date              2012-12-11T17:07:26-0500
_audit_creation_method            fapswitch 2.2
_symmetry_space_group_name_H-M    P1
_symmetry_Int_Tables_number       1
_space_group_crystal_system       triclinic
_cell_length_a                    6.989694
_cell_length_b                    14.587323
_cell_length_c                    16.049269
_cell_angle_alpha                 90.039352
_cell_angle_beta                  89.66955
_cell_angle_gamma                 90.34286
_cell_volume                      1636.34143534

loop_
_atom_site_label
_atom_site_type_symbol
_atom_type_description
_atom_site_fract_x
_atom_site_fract_y
_atom_site_fract_z
_atom_type_partial_charge
O1    O     O_R   0.505720 0.583900 0.413310 -0.541946
O2    O     O_R   0.175940 0.594920 0.586080 -0.550307
O3    O     O_R   0.005640 0.416100 0.586690 -0.531206
C1    C     C_R   0.344625 0.615706 0.615592 0.686658
O4    O     O_R   0.176000 0.594930 0.413930 -0.553726
O5    O     O_R   0.005700 0.416110 0.413310 -0.535254
C2    C     C_R   0.345615 0.617707 0.385923 0.702249
O6    O     O_R   0.505660 0.583890 0.586690 -0.545219
O7    O     O_3   0.339200 0.441330 0.500000 -0.358821
V1    V     V_3+5 0.064350 0.510880 0.500000 1.416213
O8    O     O_R   0.675980 0.405080 0.413920 -0.518824
C3    C     C_R   0.844596 0.385223 0.383580 0.768415
O9    O     O_R   0.675920 0.405070 0.586070 -0.533969
C4    C     C_R   0.843338 0.384014 0.615207 0.802652
V2    V     V_3+5 0.564340 0.489120 0.500000 1.462486
O10   O     O_3   0.839360 0.558670 0.500000 -0.398081
C5    C     C_R   0.729296 0.425090 0.783312 -0.157696
C6    C     C_R   0.678539 0.449039 0.864423 -0.113663
C7    C     C_R   0.695080 0.385565 0.928350 -0.117495
C8    C     C_R   0.762310 0.297733 0.911550 -0.139214
C9    C     C_R   0.813833 0.270967 0.829477 0.059719
C10   C     C_R   0.797503 0.336211 0.764131 0.049147
C11   C     C_R   0.885927 0.181942 0.812840 -0.135366
C12   C     C_R   0.943989 0.158377 0.729341 -0.059172
C13   C     C_R   0.910280 0.221474 0.662915 -0.083469
C14   C     C_R   0.848458 0.312316 0.681394 -0.128538
C15   C     C_R   0.034208 0.073471 0.709692 0.292251
C16   C     C_R   0.070601 0.047735 0.626091 0.013321
C17   C     C_R   0.028493 0.108640 0.561269 0.275924
C18   C     C_R   0.936677 0.191825 0.578981 0.296886
H1    H     H_    0.713318 0.477016 0.735913 0.091514
H2    H     H_    0.626513 0.517310 0.877693 0.108797
H3    H     H_    0.656531 0.404558 0.991450 0.113550
H4    H     H_    0.775289 0.251770 0.964029 0.092204
C19   C     C_R   0.727121 0.184016 0.241049 0.079575
C20   C     C_R   0.881470 0.183293 0.184870 -0.107247
C21   C     C_R   0.029694 0.247385 0.198258 -0.185996
H5    H     H_    0.150973 0.249687 0.156231 0.124655
C22   C     C_R   0.018206 0.312027 0.263457 -0.181800
H6    H     H_    0.129979 0.362563 0.270613 0.152148
C23   C     C_R   0.856918 0.316113 0.315889 -0.065420
C24   C     C_R   0.712452 0.250939 0.303170 0.049064
C25   C     C_3   0.506178 0.266872 0.284960 0.167436
C26   C     C_3   0.518974 0.188066 0.221980 -0.126059
H7    H     H_    0.410391 0.255151 0.339544 0.137999
H8    H     H_    0.490000 0.206710 0.156074 0.150600
C27   C     C_R   0.513774 0.684643 0.739231 0.026641
C28   C     C_R   0.352701 0.678885 0.687958 -0.073611
C29   C     C_R   0.196455 0.734488 0.708854 -0.179867
H9    H     H_    0.070734 0.733498 0.670393 0.146944
C30   C     C_R   0.207203 0.797529 0.775103 -0.193659
H10   H     H_    0.087973 0.841541 0.787106 0.180474
C31   C     C_R   0.376053 0.809791 0.820785 -0.086579
C32   C     C_R   0.526494 0.750246 0.802572 0.051003
C33   C     C_3   0.728272 0.772424 0.780477 0.171018
C34   C     C_3   0.716627 0.698653 0.713985 -0.364842
H11   H     H_    0.829682 0.757557 0.831865 0.072600
H12   H     H_    0.805540 0.637860 0.728310 0.115342
H13   H     H_    0.731166 0.724805 0.649107 0.195211
C35   C     C_R   0.515498 0.689662 0.263424 0.067679
C36   C     C_R   0.355703 0.684589 0.316247 -0.076732
C37   C     C_R   0.202777 0.743707 0.299210 -0.178167
H14   H     H_    0.080833 0.744637 0.340322 0.165767
C38   C     C_R   0.212048 0.806801 0.232891 -0.158682
H15   H     H_    0.095350 0.854135 0.224542 0.136560
C39   C     C_R   0.375805 0.813143 0.181623 -0.085865
C40   C     C_R   0.524601 0.751582 0.196974 0.024017
C41   C     C_3   0.729697 0.773246 0.212563 -0.365520
C42   C     C_3   0.718608 0.708341 0.286240 0.183369
H16   H     H_    0.752670 0.846332 0.229939 0.190655
H17   H     H_    0.823407 0.747861 0.161441 0.126782
H18   H     H_    0.813309 0.647391 0.280707 0.066944
O11   O     O_R   0.229140 0.916090 0.913340 -0.525188
O12   O     O_R   0.558860 0.905090 0.086080 -0.542204
O13   O     O_R   0.729100 0.083920 0.086690 -0.541336
C43   C     C_R   0.389298 0.882958 0.114598 0.675308
O14   O     O_R   0.558860 0.905090 0.913930 -0.549049
O15   O     O_R   0.729100 0.083920 0.913310 -0.545838
C44   C     C_R   0.389755 0.881966 0.886088 0.697285
O16   O     O_R   0.229140 0.916080 0.086720 -0.542247
O17   O     O_3   0.395570 0.058660 0.000020 -0.367486
V3    V     V_3+5 0.670450 0.989140 0.000000 1.403329
O18   O     O_R   0.058810 0.094980 0.913910 -0.514838
C45   C     C_R   0.891692 0.113935 0.882827 0.790586
O19   O     O_R   0.058810 0.094980 0.086060 -0.544474
C46   C     C_R   0.889977 0.116997 0.114725 0.680468
V4    V     V_3+5 0.170450 0.010950 0.999970 1.435569
O20   O     O_3   0.895460 0.941370 0.999990 -0.375865
O21   O     O_3   0.076197 0.089396 0.479440 -0.650244
H19   H     H_    0.200956 0.057488 0.478684 0.300828
O22   O     O_3   0.485131 0.354165 0.248719 -0.651578
H20   H     H_    0.406136 0.348036 0.197986 0.273786
C47   C     C_3   0.416214 0.100325 0.250524 -0.738888
H21   H     H_    0.453497 0.082589 0.315798 0.211781
H22   H     H_    0.259269 0.108829 0.246865 0.222725
H23   H     H_    0.458069 0.042577 0.209541 0.216872
O23   O     O_3   0.745386 0.859866 0.744545 -0.636075
H24   H     H_    0.777832 0.902644 0.790359 0.315528
O24   O     O_3   0.731438 0.756110 0.362037 -0.633716
H25   H     H_    0.768062 0.710508 0.404724 0.301838
O25   O     O_3   0.091127 0.016247 0.772586 -0.647375
H26   H     H_    0.218369 0.991633 0.757369 0.292168
C48   C     C_3   0.135950 0.951231 0.606729 -0.739231
H27   H     H_    0.113192 0.931205 0.540867 0.223394
H28   H     H_    0.289771 0.943437 0.621873 0.211799
H29   H     H_    0.049456 0.901990 0.643700 0.249052
O26   O     O_3   0.865125 0.243672 0.514477 -0.651760
H30   H     H_    0.857147 0.206377 0.463085 0.312613

loop_
_geom_bond_atom_site_label_1
_geom_bond_atom_site_label_2
_ccdc_geom_bond_type
O18   V4    S    
V4    O20   S    
C47   H21   S    
C18   O26   S    
C23   C24   A    
C7    C8    A    
C12   C15   A    
C1    O6    A    
C17   O21   S    
O17   V3    S    
C22   C23   A    
C31   C32   A    
C17   C18   A    
O12   C43   A    
O18   C45   A    
O14   V3    S    
C20   C21   A    
C31   C44   S    
O16   V4    S    
O5    C3    A    
C33   C34   S    
V2    O10   S    
C6    C7    A    
C19   C24   A    
O11   V4    S    
C37   C38   A    
C26   C47   S    
O8    V2    S    
C2    C36   S    
C27   C28   A    
C35   C40   A    
C41   C42   S    
C29   C30   A    
O26   H30   S    
O1    V2    S    
O7    V1    S    
C8    H4    S    
O19   V4    S    
C39   C40   A    
C47   H22   S    
O9    C4    A    
O12   V3    S    
C26   H8    S    
O23   H24   S    
O14   C44   A    
C9    C11   A    
C11   C45   S    
C30   H10   S    
O25   H26   S    
C12   C13   A    
C7    H3    S    
C22   H6    S    
O4    C2    A    
C20   C46   S    
C13   C14   A    
O19   C46   A    
C15   O25   S    
C25   O22   S    
C40   C41   S    
C35   C36   A    
C30   C31   A    
C19   C20   A    
C38   C39   A    
C42   H18   S    
O2    C1    A    
C25   C26   S    
C21   H5    S    
O15   V3    S    
O13   C46   A    
O24   H25   S    
C11   C12   A    
C39   C43   S    
C33   O23   S    
C37   H14   S    
C5    C6    A    
O11   C44   A    
C48   H28   S    
C4    C14   S    
C19   C26   S    
C25   H7    S    
O17   V4    S    
O3    C4    A    
C27   C32   A    
C42   O24   S    
C28   C29   A    
C47   H23   S    
O9    V2    S    
C5    H1    S    
C6    H2    S    
C24   C25   S    
O2    V1    S    
O22   H20   S    
C3    C23   S    
C1    C28   S    
C13   C18   A    
C32   C33   S    
C16   C17   A    
O1    C2    A    
C43   O16   A    
O5    V1    S    
O8    C3    A    
O13   V3    S    
O6    V2    S    
C5    C10   A    
C34   H13   S    
C38   H15   S    
C33   H11   S    
O7    V2    S    
O4    V1    S    
C21   C22   A    
O3    V1    S    
V1    O10   S    
C16   C48   S    
C35   C42   S    
C41   H17   S    
V3    O20   S    
C34   H12   S    
C48   H29   S    
C36   C37   A    
O15   C45   A    
C8    C9    A    
C41   H16   S    
C29   H9    S    
C10   C14   A    
C48   H27   S    
O21   H19   S    
C9    C10   A    
C27   C34   S    
C15   C16   A    
