data_str_m12_o9_o10_f0_bcu.sym.68
_audit_creation_date              2013-03-05T15:57:25-0500
_audit_creation_method            fapswitch 2.2
_symmetry_space_group_name_H-M    P1
_symmetry_Int_Tables_number       1
_space_group_crystal_system       triclinic
_cell_length_a                    12.970748
_cell_length_b                    13.031724
_cell_length_c                    15.354707
_cell_angle_alpha                 116.527093
_cell_angle_beta                  64.314863
_cell_angle_gamma                 97.274393
_cell_volume                      2085.50272635

loop_
_atom_site_label
_atom_site_type_symbol
_atom_site_description
_atom_site_fract_x
_atom_site_fract_y
_atom_site_fract_z
_atom_type_partial_charge
C1    C     C_R   0.021450 0.834629 0.032938 -0.102662
H1    H     H_    0.061055 0.898540 0.080140 0.112260
N1    N     N_R   0.037320 0.720000 0.995830 -0.045056
C2    C     C_R   0.698787 0.411124 0.211035 0.032565
N2    N     N_R   0.790770 0.446140 0.151990 -0.058136
C3    C     C_R   0.739761 0.579695 0.949149 -0.138215
H2    H     H_    0.747518 0.628249 0.905740 0.097767
N3    N     N_R   0.824900 0.517970 0.936430 -0.043927
C4    C     C_R   0.986143 0.714333 0.312456 -0.125808
H3    H     H_    0.954218 0.685062 0.374416 0.086294
N4    N     N_R   0.003190 0.648180 0.211390 -0.039409
C5    C     C_R   0.662148 0.483374 0.048687 -0.113897
H4    H     H_    0.603519 0.446066 0.099587 0.104426
N5    N     N_R   0.774330 0.457010 0.995830 -0.046833
C6    C     C_R   0.070402 0.812325 0.215671 -0.140838
H5    H     H_    0.123304 0.868715 0.184776 0.141028
N6    N     N_R   0.053760 0.709130 0.151980 -0.042321
C7    C     C_R   0.794772 0.509344 0.310476 -0.137184
H6    H     H_    0.824893 0.543616 0.372826 0.117578
N7    N     N_R   0.853840 0.498830 0.211390 -0.048449
C8    C     C_R   0.928113 0.748448 0.929670 -0.140219
H7    H     H_    0.885519 0.733327 0.878862 0.090864
N8    N     N_R   0.974250 0.667320 0.936430 -0.043112
C9    C     C_R   0.949265 0.854564 0.995259 0.119765
C10   C     C_R   0.697715 0.453493 0.311011 -0.003473
C11   C     C_R   0.638131 0.563175 0.023019 0.136954
C12   C     C_R   0.020653 0.822286 0.319543 0.066168
C13   C     C_R   0.323542 0.578197 0.009683 -0.128354
H8    H     H_    0.369853 0.640788 0.982340 0.129719
N9    N     N_R   0.225670 0.542990 0.004170 -0.045984
C14   C     C_R   0.899423 0.202958 0.793888 -0.143222
H9    H     H_    0.845679 0.147348 0.826794 0.118330
N10   N     N_R   0.946240 0.290870 0.848020 -0.043399
C15   C     C_R   0.215394 0.448798 0.685646 -0.116509
H10   H     H_    0.189011 0.404311 0.620972 0.106589
N11   N     N_R   0.146160 0.501170 0.788610 -0.044458
C16   C     C_R   0.097294 0.251605 0.044480 -0.147047
H11   H     H_    0.158980 0.267803 0.077870 0.103740
N12   N     N_R   0.025750 0.332680 0.063570 -0.042621
C17   C     C_R   0.997385 0.167369 0.948224 -0.100109
H12   H     H_    0.965879 0.104718 0.892248 0.094314
N13   N     N_R   0.962680 0.280000 0.004170 -0.044443
C18   C     C_R   0.319238 0.539617 0.780867 -0.132393
H13   H     H_    0.388298 0.579337 0.802597 0.117375
N14   N     N_R   0.209230 0.553860 0.848010 -0.040264
C19   C     C_R   0.244933 0.480163 0.106752 -0.148740
H14   H     H_    0.222864 0.451392 0.168320 0.094117
N15   N     N_R   0.175100 0.482030 0.063570 -0.043086
C20   C     C_R   0.977951 0.304781 0.701349 -0.133566
H15   H     H_    0.994898 0.346844 0.650390 0.086286
N16   N     N_R   0.996810 0.351820 0.788610 -0.041102
Ni1   Ni    Ni4+2 0.130310 0.630310 0.000000 0.246746
Ni2   Ni    Ni4+2 0.869690 0.369690 0.000000 0.224426
Ni3   Ni    Ni4+2 0.985660 0.509480 0.863750 0.211505
Ni4   Ni    Ni4+2 0.014340 0.490520 0.136250 0.210253
C21   C     C_R   0.337757 0.540755 0.074521 0.151967
C22   C     C_R   0.915647 0.210679 0.701915 0.071628
C23   C     C_R   0.323617 0.475161 0.679232 0.041418
C24   C     C_R   0.083037 0.145520 0.971085 0.072208
C25   C     C_R   0.293480 0.136574 0.278620 -0.154405
H16   H     H_    0.371691 0.163719 0.288648 0.128676
C26   C     C_R   0.211559 0.090913 0.345000 -0.165071
H17   H     H_    0.227031 0.084184 0.406220 0.128246
C27   C     C_R   0.106864 0.061370 0.337031 0.121133
C28   C     C_R   0.086169 0.077060 0.261594 -0.244081
H18   H     H_    0.004375 0.058396 0.257797 0.124176
C29   C     C_R   0.170538 0.115616 0.190985 -0.127995
H19   H     H_    0.154233 0.122910 0.130611 0.121690
C30   C     C_R   0.272054 0.150526 0.202430 0.196940
C31   C     C_R   0.953507 0.135482 0.515534 -0.211548
H20   H     H_    0.975446 0.217812 0.514824 0.133080
C32   C     C_R   0.891632 0.126991 0.612080 0.039215
C33   C     C_R   0.850716 0.020979 0.609257 0.041858
C34   C     C_R   0.895182 0.923379 0.511961 -0.235795
H21   H     H_    0.860716 0.843032 0.510519 0.130014
C35   C     C_R   0.981185 0.929272 0.418958 0.066165
C36   C     C_R   0.010911 0.038693 0.421960 0.028393
C37   C     C_R   0.773389 0.925575 0.732394 -0.249528
H22   H     H_    0.855599 0.876918 0.692632 0.129067
C38   C     C_R   0.681919 0.903197 0.811624 -0.243250
H23   H     H_    0.695355 0.837528 0.831471 0.153832
C39   C     C_R   0.573006 0.961321 0.861032 0.444287
C40   C     C_R   0.558971 0.046412 0.833479 -0.228294
H24   H     H_    0.476079 0.092806 0.870698 0.165532
C41   C     C_R   0.651272 0.070627 0.755839 -0.196977
H25   H     H_    0.637861 0.134281 0.733709 0.138099
C42   C     C_R   0.758375 0.008373 0.702851 0.135221
H26   H     H_    0.050694 0.350203 0.412781 0.112090
C43   C     C_R   0.929674 0.304176 0.342781 -0.112735
H27   H     H_    0.991982 0.253470 0.262398 0.113904
C44   C     C_R   0.816032 0.314996 0.360881 -0.146232
H28   H     H_    0.792462 0.269301 0.294476 0.128632
C45   C     C_R   0.735569 0.391873 0.461512 0.120622
C46   C     C_R   0.768614 0.448753 0.546737 -0.155870
H29   H     H_    0.708380 0.508915 0.625255 0.112042
C47   C     C_R   0.881488 0.432018 0.529646 -0.130412
H30   H     H_    0.906869 0.476596 0.595069 0.111843
C48   C     C_R   0.962522 0.360987 0.427089 -0.112219
C49   C     C_R   0.524804 0.428259 0.565403 -0.244892
H31   H     H_    0.532675 0.405671 0.622395 0.132228
C50   C     C_R   0.418307 0.466292 0.583879 0.072548
C51   C     C_R   0.404125 0.498904 0.513411 0.010922
C52   C     C_R   0.498124 0.483945 0.420171 -0.226838
H32   H     H_    0.489837 0.510152 0.365369 0.132742
C53   C     C_R   0.605110 0.447457 0.401756 0.079175
C54   C     C_R   0.620975 0.421226 0.475039 0.024595
C55   C     C_R   0.249264 0.518006 0.463406 -0.187292
H33   H     H_    0.287324 0.440919 0.388708 0.112030
C56   C     C_R   0.151931 0.576947 0.484595 -0.111722
H34   H     H_    0.116224 0.546133 0.426202 0.110706
C57   C     C_R   0.100842 0.675887 0.580873 -0.098709
H35   H     H_    0.025087 0.720843 0.597300 0.096224
C58   C     C_R   0.148203 0.717394 0.655404 -0.115416
H36   H     H_    0.109142 0.794654 0.729566 0.114906
C59   C     C_R   0.246793 0.660043 0.633734 -0.111412
H37   H     H_    0.283804 0.694714 0.691322 0.127326
C60   C     C_R   0.297349 0.558702 0.538147 0.117973
C61   C     C_2   0.432621 0.562372 0.104092 -0.196211
H38   H     H_    0.435198 0.520077 0.150012 0.130639
C62   C     C_2   0.524930 0.605645 0.052168 -0.175942
H39   H     H_    0.521124 0.652250 0.010142 0.156125
C63   C     C_2   0.895420 0.964268 0.023260 -0.189753
H40   H     H_    0.864421 0.968362 0.969532 0.137516
C64   C     C_2   0.872180 0.055462 0.117520 -0.148356
H41   H     H_    0.895111 0.054441 0.176910 0.122191
C65   C     C_1   0.349637 0.207113 0.140450 0.028480
N17   N     N_1   0.410566 0.253417 0.090745 -0.101192
C66   C     C_1   0.646679 0.308803 0.165524 0.012181
N18   N     N_1   0.606429 0.225401 0.128668 -0.073104
N19   N     N_R   0.476568 0.931450 0.935895 0.223548
O1    O     O_R   0.372343 0.957520 0.956457 -0.445534
O2    O     O_R   0.492078 0.870630 0.977904 -0.447481

loop_
_geom_bond_atom_site_label_1
_geom_bond_atom_site_label_2
_geom_bond_distance
_ccdc_geom_bond_type
C37   C42   1.405332 A    
N15   Ni4   1.880578 S    
C65   N17   1.157120 T    
C27   C36   1.476854 S    
N1    N8    1.384796 A    
C57   H35   1.082249 S    
C66   N18   1.156341 T    
C20   N16   1.320351 A    
C2    C10   1.374027 A    
C13   C21   1.370777 A    
C10   C53   1.419010 S    
N2    N7    1.384812 A    
C41   H25   1.083228 S    
C16   H11   1.078767 S    
C34   C35   1.408878 A    
N9    N15   1.374721 A    
C13   H8    1.079632 S    
C11   C62   1.441320 S    
C15   H10   1.081405 S    
C56   C57   1.396996 A    
N13   Ni2   1.820944 S    
C38   H23   1.082747 S    
C37   C38   1.396704 A    
C6    H5    1.066496 S    
C20   C22   1.381825 A    
C25   C26   1.401711 A    
C1    H1    1.076130 S    
C33   C34   1.387019 A    
C20   H15   1.079149 S    
C61   H38   1.083652 S    
C33   C42   1.481820 S    
C26   C27   1.406005 A    
C18   C23   1.381495 A    
N12   Ni4   1.838955 S    
C49   H31   1.085359 S    
C59   C60   1.407799 A    
C47   C48   1.396761 A    
C55   H33   1.083503 S    
C14   N10   1.335247 A    
C31   H20   1.078260 S    
C39   N19   1.437883 S    
C4    H3    1.079237 S    
C7    N7    1.323045 A    
C32   C33   1.404599 A    
C17   N13   1.341936 A    
C17   C24   1.394985 A    
C8    H7    1.077693 S    
C31   C36   1.378909 A    
C55   C56   1.398571 A    
C46   H29   1.083006 S    
C7    C10   1.370759 A    
N7    Ni4   1.881541 S    
N6    Ni1   1.896126 S    
N12   N13   1.384795 A    
C41   C42   1.402162 A    
N10   Ni2   1.896127 S    
C19   N15   1.342110 A    
C34   H21   1.079826 S    
C2    C66   1.439447 S    
C29   H19   1.080229 S    
C50   C51   1.410060 A    
C35   C36   1.414766 A    
C57   C58   1.397127 A    
N3    Ni3   1.880579 S    
C44   H28   1.081423 S    
C37   H22   1.083020 S    
C7    H6    1.080187 S    
C3    N3    1.342518 A    
N14   Ni1   1.896687 S    
C28   C29   1.394393 A    
C5    C11   1.374198 A    
C25   H16   1.083442 S    
C1    N1    1.347006 A    
N19   O2    1.301663 A    
C18   H13   1.081222 S    
C26   H17   1.083149 S    
C45   C54   1.484627 S    
C44   C45   1.401632 A    
C4    N4    1.325192 A    
C6    C12   1.386069 A    
C40   H24   1.082349 S    
C47   H30   1.082561 S    
C9    C63   1.469695 S    
N11   N14   1.384813 A    
C52   C53   1.392341 A    
C23   C50   1.411200 S    
C46   C47   1.398790 A    
C18   N14   1.324496 A    
C16   C24   1.392735 A    
C51   C60   1.490851 S    
C38   C39   1.404848 A    
C17   H12   1.079582 S    
C49   C50   1.393677 A    
C5    N5    1.322050 A    
C30   C65   1.439070 S    
C28   H18   1.078762 S    
C8    N8    1.341172 A    
C43   C44   1.390107 A    
C63   C64   1.331947 D    
C12   C35   1.462314 S    
N4    Ni4   1.840261 S    
C62   H39   1.083048 S    
C4    C12   1.391878 A    
N8    Ni3   1.838955 S    
C58   H36   1.082625 S    
C53   C54   1.409786 A    
N2    Ni2   1.896686 S    
C6    N6    1.321449 A    
C49   C54   1.380092 A    
N9    Ni1   1.821827 S    
C19   H14   1.082166 S    
N4    N6    1.374724 A    
N3    N5    1.374722 A    
C40   C41   1.399012 A    
C21   C61   1.442853 S    
C14   H9    1.077140 S    
C2    N2    1.321985 A    
N1    Ni1   1.820944 S    
C3    H2    1.075743 S    
N10   N16   1.374726 A    
C45   C46   1.408866 A    
C43   C48   1.395560 A    
N16   Ni3   1.840261 S    
C27   C28   1.396614 A    
C14   C22   1.383017 A    
C13   N9    1.319167 A    
N19   O1    1.301220 A    
C63   H40   1.085066 S    
C16   N12   1.341355 A    
C56   H34   1.082098 S    
C3    C11   1.385899 A    
C25   C30   1.401253 A    
C15   N11   1.316217 A    
C22   C32   1.460078 S    
C51   C52   1.368207 A    
C61   C62   1.338045 D    
N11   Ni3   1.881540 S    
N5    Ni2   1.821827 S    
C5    H4    1.075223 S    
C1    C9    1.394378 A    
C39   C40   1.406667 A    
C8    C9    1.378867 A    
C19   C21   1.381958 A    
C52   H32   1.086595 S    
C15   C23   1.373473 A    
C31   C32   1.395235 A    
C29   C30   1.396119 A    
C43   H27   1.074819 S    
C55   C60   1.407246 A    
H26   C48   1.082258 S    
C59   H37   1.082894 S    
C64   H41   1.080370 S    
C58   C59   1.398444 A    
