data_str_m9_o18_o19_f0_sra.sym.40
_audit_creation_date              2012-12-11T15:27:38-0500
_audit_creation_method            fapswitch 2.2
_symmetry_space_group_name_H-M    P1
_symmetry_Int_Tables_number       1
_space_group_crystal_system       triclinic
_cell_length_a                    23.414006
_cell_length_b                    7.300658
_cell_length_c                    15.11556
_cell_angle_alpha                 89.677478
_cell_angle_beta                  108.701863
_cell_angle_gamma                 90.367081
_cell_volume                      2447.32466148

loop_
_atom_site_label
_atom_site_type_symbol
_atom_type_description
_atom_site_fract_x
_atom_site_fract_y
_atom_site_fract_z
_atom_type_partial_charge
O1    O     O_R   0.711000 0.648610 0.341170 -0.534006
O2    O     O_R   0.289000 0.351390 0.658830 -0.534006
O3    O     O_R   0.789000 0.148610 0.158830 -0.536589
O4    O     O_R   0.211000 0.851390 0.841170 -0.536589
O5    O     O_R   0.829650 0.322030 0.336650 -0.540866
O6    O     O_R   0.170350 0.677970 0.663350 -0.540866
O7    O     O_R   0.670350 0.822030 0.163350 -0.531300
O8    O     O_R   0.329650 0.177970 0.836650 -0.531301
C1    C     C_R   0.854286 0.485946 0.356801 0.730487
C2    C     C_R   0.145714 0.514054 0.643199 0.730488
C3    C     C_R   0.645711 0.985571 0.143205 0.729010
C4    C     C_R   0.354289 0.014428 0.856795 0.729014
O9    O     O_R   0.713950 0.319280 0.352070 -0.541292
O10   O     O_R   0.286050 0.680720 0.647930 -0.541292
O11   O     O_R   0.786050 0.819280 0.147930 -0.537983
O12   O     O_R   0.213950 0.180720 0.852070 -0.537983
O13   O     O_R   0.672470 0.142870 0.174360 -0.536498
O14   O     O_R   0.327530 0.857130 0.825640 -0.536499
O15   O     O_R   0.827530 0.642870 0.325640 -0.527519
O16   O     O_R   0.172470 0.357130 0.674360 -0.527520
C5    C     C_R   0.701560 0.486682 0.375478 0.687605
C6    C     C_R   0.298440 0.513317 0.624522 0.687605
C7    C     C_R   0.798432 0.988189 0.124559 0.687386
C8    C     C_R   0.201568 0.011811 0.875441 0.687385
O17   O     O_3   0.736530 0.478650 0.191680 -0.380495
O18   O     O_3   0.263470 0.521350 0.808320 -0.380496
O19   O     O_3   0.763470 0.978650 0.308320 -0.381224
O20   O     O_3   0.236530 0.021350 0.691680 -0.381224
V1    V     V_3+5 0.752500 0.206170 0.260820 1.446381
V2    V     V_3+5 0.247500 0.793830 0.739180 1.446381
V3    V     V_3+5 0.747500 0.706170 0.239180 1.472215
V4    V     V_3+5 0.252500 0.293830 0.760820 1.472214
C9    C     C_R   0.829129 0.000652 0.054344 -0.065110
C10   C     C_R   0.170871 0.999348 0.945657 -0.065111
C11   C     C_R   0.670909 0.490482 0.445878 -0.064453
C12   C     C_R   0.329091 0.509518 0.554121 -0.064453
C13   C     C_R   0.825894 0.086823 0.898671 -0.159732
C14   C     C_R   0.174106 0.913173 0.101329 -0.159733
C15   C     C_R   0.675363 0.444713 0.605966 -0.159977
C16   C     C_R   0.324636 0.555292 0.394034 -0.159978
C17   C     C_R   0.797818 0.072380 0.966523 -0.178281
C18   C     C_R   0.202182 0.927616 0.033476 -0.178279
C19   C     C_R   0.703294 0.442659 0.537709 -0.179770
C20   C     C_R   0.296705 0.557349 0.462291 -0.179767
C21   C     C_R   0.890249 0.951567 0.076503 -0.108456
C22   C     C_R   0.109752 0.048437 0.923499 -0.108457
C23   C     C_R   0.608993 0.531510 0.420668 -0.108136
C24   C     C_R   0.391006 0.468482 0.579330 -0.108140
C25   C     C_R   0.922230 0.997280 0.013265 0.040190
C26   C     C_R   0.077771 0.002724 0.986736 0.040190
C27   C     C_R   0.577709 0.501410 0.486503 0.039366
C28   C     C_R   0.422290 0.498583 0.513495 0.039367
C29   C     C_R   0.887397 0.047923 0.920885 0.134620
C30   C     C_R   0.112603 0.952077 0.079116 0.134620
C31   C     C_R   0.613257 0.475845 0.581424 0.134588
C32   C     C_R   0.386741 0.524153 0.418574 0.134588
C33   C     C_R   0.986612 0.991983 0.036241 0.055314
C34   C     C_R   0.013389 0.008022 0.963761 0.055315
C35   C     C_R   0.513294 0.498993 0.463513 0.054630
C36   C     C_R   0.486705 0.500997 0.536485 0.054631
C37   C     C_R   0.974736 0.019439 0.870675 -0.166333
C38   C     C_R   0.025265 0.980566 0.129327 -0.166335
C39   C     C_R   0.525414 0.514644 0.629419 -0.167076
C40   C     C_R   0.474584 0.485345 0.370579 -0.167077
C41   C     C_R   0.913644 0.051882 0.850336 -0.190145
C42   C     C_R   0.086356 0.948121 0.149665 -0.190145
C43   C     C_R   0.586996 0.489317 0.651657 -0.190196
C44   C     C_R   0.413003 0.510677 0.348341 -0.190196
H1    H     H_    0.886301 0.073764 0.778207 0.125541
H2    H     H_    0.113699 0.926237 0.221794 0.125541
H3    H     H_    0.614602 0.486897 0.724565 0.126060
H4    H     H_    0.385397 0.513099 0.275433 0.126061
H5    H     H_    0.249211 0.890162 0.050644 0.112010
H6    H     H_    0.750788 0.109830 0.949355 0.112009
H7    H     H_    0.249070 0.588539 0.442802 0.110872
H8    H     H_    0.750930 0.411476 0.557199 0.110872
H9    H     H_    0.799694 0.131119 0.828963 0.114766
H10   H     H_    0.200306 0.868874 0.171037 0.114765
H11   H     H_    0.702203 0.419363 0.678003 0.114719
H12   H     H_    0.297797 0.580648 0.321997 0.114719
H13   H     H_    0.990389 0.001035 0.811696 0.143101
H14   H     H_    0.009612 0.998972 0.188305 0.143102
H15   H     H_    0.509384 0.547663 0.686636 0.143690
H16   H     H_    0.490613 0.452321 0.313362 0.143692
C45   C     C_1   0.416789 0.007517 0.918765 -0.155199
C46   C     C_1   0.583210 0.992483 0.081235 -0.155200
C47   C     C_1   0.083215 0.506629 0.581249 -0.156634
C48   C     C_1   0.916784 0.493371 0.418751 -0.156633
C49   C     C_1   0.469149 0.002672 0.969965 0.025095
C50   C     C_1   0.530851 0.997328 0.030035 0.025095
C51   C     C_1   0.030852 0.502227 0.530041 0.021960
C52   C     C_1   0.969148 0.497773 0.469959 0.021961
C53   C     C_1   0.084397 0.166457 0.843064 0.285040
N1    N     N_1   0.064551 0.261357 0.779052 -0.360219
C54   C     C_1   0.915605 0.833553 0.156939 0.285038
N2    N     N_1   0.935451 0.738658 0.220953 -0.360219
C55   C     C_1   0.418263 0.372976 0.667070 0.283101
N3    N     N_1   0.439633 0.296019 0.736972 -0.360254
C56   C     C_1   0.581735 0.627002 0.332924 0.283096
N4    N     N_1   0.560364 0.703946 0.263018 -0.360254

loop_
_geom_bond_atom_site_label_1
_geom_bond_atom_site_label_2
_ccdc_geom_bond_type
O17   V3    S    
O1    C5    A    
C53   N1    T    
C47   C51   T    
O19   V1    S    
C9    C21   A    
O3    C7    A    
C54   N2    T    
C10   C18   A    
O15   V3    S    
C55   N3    T    
C25   C33   A    
C33   C38   A    
O7    C3    A    
C24   C55   S    
C35   C40   A    
C26   C30   A    
C4    C45   S    
C36   C39   A    
C40   C44   A    
O9    V1    S    
C14   C18   A    
C1    C48   S    
O4    C8    A    
C25   C29   A    
C3    C46   S    
O1    V3    S    
C23   C56   S    
O2    V4    S    
O3    V1    S    
C40   H16   S    
C28   C36   A    
C17   H6    S    
C1    O15   A    
C15   C31   A    
C48   C52   T    
C2    O16   A    
C7    C9    S    
O2    C6    A    
C16   H12   S    
C10   C22   A    
C11   C19   A    
C16   C20   A    
C43   H3    S    
C44   H4    S    
C13   C29   A    
C34   C37   A    
O11   C7    A    
C38   H14   S    
C11   C23   A    
C35   C36   A    
O12   C8    A    
O10   V2    S    
O5    V1    S    
C39   C43   A    
C2    C47   S    
O7    V3    S    
C38   C42   A    
C26   C34   A    
C46   C50   T    
C51   C52   S    
C45   C49   T    
O18   V4    S    
C23   C27   A    
C14   H10   S    
C16   C32   A    
C32   C44   A    
C13   H9    S    
C8    C10   S    
C39   H15   S    
O8    V4    S    
C20   H7    S    
O5    C1    A    
C31   C43   A    
C56   N4    T    
C14   C30   A    
C21   C25   A    
O8    C4    A    
O9    C5    A    
O14   V2    S    
O6    V2    S    
C12   C20   A    
C27   C35   A    
C21   C54   S    
C29   C41   A    
O16   V4    S    
C19   H8    S    
C3    O13   A    
C18   H5    S    
O6    C2    A    
C15   C19   A    
O11   V3    S    
C30   C42   A    
O12   V4    S    
C6    C12   S    
C22   C26   A    
C9    C17   A    
O10   C6    A    
O20   V2    S    
C5    C11   S    
C37   H13   S    
O13   V1    S    
C33   C34   A    
C42   H2    S    
C22   C53   S    
C41   H1    S    
C12   C24   A    
C27   C31   A    
C13   C17   A    
C37   C41   A    
C24   C28   A    
C4    O14   A    
C49   C50   S    
O4    V2    S    
C28   C32   A    
C15   H11   S    
