data_str_m2_o5_o17_f0_pcu.sym.13
_audit_creation_date              2013-03-05T16:34:51-0500
_audit_creation_method            fapswitch 2.2
_symmetry_space_group_name_H-M    P1
_symmetry_Int_Tables_number       1
_space_group_crystal_system       triclinic
_cell_length_a                    15.126381
_cell_length_b                    9.137266
_cell_length_c                    7.790643
_cell_angle_alpha                 89.986558
_cell_angle_beta                  90.068838
_cell_angle_gamma                 89.847028
_cell_volume                      1076.76946962

loop_
_atom_site_label
_atom_site_type_symbol
_atom_site_description
_atom_site_fract_x
_atom_site_fract_y
_atom_site_fract_z
_atom_type_partial_charge
O1    O     O_R   0.500000 0.288390 0.642760 -0.568650
O2    O     O_R   0.500000 0.711610 0.357240 -0.575081
O3    O     O_R   0.500000 0.711610 0.642760 -0.568469
O4    O     O_R   0.500000 0.288390 0.357240 -0.573460
H1    H     H_    0.921643 0.129001 0.476987 0.165046
H2    H     H_    0.078703 0.869365 0.511298 0.166231
H3    H     H_    0.921324 0.869890 0.526617 0.164775
H4    H     H_    0.079078 0.128162 0.490291 0.165815
C1    C     C_R   0.500756 0.219989 0.500104 0.909524
C2    C     C_R   0.499387 0.780012 0.500060 0.911963
O5    O     O_R   0.370260 0.500000 0.642800 -0.573345
O6    O     O_R   0.629740 0.500000 0.357200 -0.564287
O7    O     O_R   0.629740 0.500000 0.642800 -0.573012
O8    O     O_R   0.370260 0.500000 0.357200 -0.562131
C3    C     C_R   0.328691 0.500138 0.499820 0.873063
C4    C     C_R   0.671296 0.499601 0.500079 0.870966
Cu1   Cu    Cu3+1 0.500000 0.500000 0.669080 1.090941
Cu2   Cu    Cu3+1 0.500000 0.500000 0.330920 1.087506
N1    N     N_1   0.500000 0.500000 0.076820 -0.028804
N2    N     N_1   0.500000 0.500000 0.923180 -0.030627
C5    C     C_R   0.813346 0.632408 0.522545 -0.064578
C6    C     C_R   0.186826 0.365307 0.511430 -0.063739
C7    C     C_R   0.813899 0.366827 0.477900 -0.052979
C8    C     C_R   0.185768 0.632583 0.485200 -0.059272
C9    C     C_R   0.767790 0.499518 0.500517 -0.190710
C10   C     C_R   0.232204 0.499402 0.499447 -0.193172
C11   C     C_R   0.906827 0.365579 0.489046 0.052428
C12   C     C_R   0.093051 0.632932 0.499430 0.054444
C13   C     C_R   0.906475 0.633090 0.517523 0.046851
C14   C     C_R   0.093632 0.364608 0.505386 0.047131
C15   C     C_R   0.953199 0.499086 0.505107 0.057663
C16   C     C_R   0.046774 0.498836 0.504818 0.057695
C17   C     C_R   0.954588 0.233570 0.485243 -0.138448
C18   C     C_R   0.045500 0.764816 0.508996 -0.136122
C19   C     C_R   0.954099 0.764897 0.520136 -0.153777
C20   C     C_R   0.046093 0.233007 0.495287 -0.153197
C21   C     C_1   0.500523 0.065272 0.500431 -0.125739
C22   C     C_1   0.499626 0.934725 0.500357 -0.122657
C23   C     C_2   0.762637 0.770473 0.541909 0.823078
O9    O     O_2   0.772114 0.846035 0.670137 -0.550224
O10   O     O_R   0.704106 0.813139 0.412651 -0.764844
H5    H     H_    0.674104 0.909360 0.439667 0.337036
C24   C     C_2   0.237737 0.226680 0.522282 0.818614
O11   O     O_2   0.226425 0.143197 0.642958 -0.553440
O12   O     O_R   0.298681 0.192656 0.393965 -0.761307
H6    H     H_    0.329347 0.095968 0.415631 0.331710
C25   C     C_2   0.764975 0.231715 0.432802 0.817524
O13   O     O_2   0.707924 0.184472 0.528728 -0.605849
O14   O     O_R   0.784185 0.160422 0.278459 -0.733964
H7    H     H_    0.744525 0.073418 0.256305 0.353575
C26   C     C_2   0.233312 0.768817 0.439409 0.825571
O15   O     O_2   0.293200 0.814270 0.530085 -0.600792
O16   O     O_R   0.209130 0.843358 0.289717 -0.737355
H8    H     H_    0.248250 0.930291 0.264595 0.350879

loop_
_geom_bond_atom_site_label_1
_geom_bond_atom_site_label_2
_geom_bond_distance
_ccdc_geom_bond_type
C24   O11   1.223016 D    
C21   C22   1.192958 T    
C7    C11   1.408257 A    
O2    Cu2   1.944427 S    
O10   H5    1.010653 S    
O8    Cu2   1.973394 S    
O1    Cu1   1.944428 S    
C6    C24   1.482976 S    
C5    C23   1.482494 S    
O7    Cu1   1.973392 S    
C2    C22   1.413666 S    
O4    Cu2   1.944332 S    
Cu1   N2    1.979602 S    
N1    N2    1.196955 T    
C1    C21   1.413702 S    
Cu1   Cu2   2.634485 S    
C12   C18   1.403786 A    
C13   C15   1.415528 A    
O3    C2    1.275256 A    
O12   H6    1.010804 S    
C11   C17   1.404689 A    
C14   C16   1.414923 A    
C24   O12   1.395227 S    
H3    C19   1.079923 S    
O5    C3    1.278462 A    
C8    C26   1.482969 S    
O6    C4    1.277678 A    
C25   O14   1.398155 S    
C8    C10   1.407751 A    
O3    Cu1   1.944331 S    
C7    C9    1.408325 A    
H4    C20   1.079688 S    
C18   C19   1.385390 A    
C7    C25   1.483133 S    
C23   O9    1.222994 D    
C11   C15   1.414302 A    
C26   O15   1.221787 D    
O2    C2    1.276342 A    
C25   O13   1.221853 D    
H2    C18   1.080599 S    
C12   C16   1.413394 A    
C17   C20   1.386248 A    
O1    C1    1.275246 A    
C23   O10   1.394901 S    
Cu2   N1    1.979602 S    
C6    C10   1.409151 A    
O7    C4    1.277929 A    
O6    Cu2   1.972903 S    
C4    C9    1.459611 S    
O14   H7    1.011945 S    
C5    C9    1.408187 A    
O8    C3    1.277337 A    
O5    Cu1   1.972904 S    
C3    C10   1.459544 S    
C6    C14   1.410454 A    
O4    C1    1.276373 A    
O16   H8    1.011011 S    
C13   C19   1.405151 A    
C5    C13   1.409310 A    
C15   C16   1.415445 A    
C8    C12   1.406971 A    
H1    C17   1.080692 S    
C26   O16   1.398203 S    
C14   C20   1.404905 A    
