data_str_m9_o2_o20_f0_sra.sym.73
_audit_creation_date              2012-12-11T16:29:33-0500
_audit_creation_method            fapswitch 2.2
_symmetry_space_group_name_H-M    P1
_symmetry_Int_Tables_number       1
_space_group_crystal_system       triclinic
_cell_length_a                    6.954048
_cell_length_b                    17.362533
_cell_length_c                    18.701106
_cell_angle_alpha                 106.314866
_cell_angle_beta                  89.57331
_cell_angle_gamma                 90.398684
_cell_volume                      2166.95856675

loop_
_atom_site_label
_atom_site_type_symbol
_atom_type_description
_atom_site_fract_x
_atom_site_fract_y
_atom_site_fract_z
_atom_type_partial_charge
O1    O     O_R   0.494360 0.415680 0.413760 -0.528105
O2    O     O_R   0.818810 0.432910 0.557230 -0.527151
O3    O     O_R   0.994290 0.584320 0.586240 -0.531241
C1    C     C_R   0.649769 0.415855 0.580511 0.722389
O4    O     O_R   0.823740 0.406440 0.412520 -0.542367
O5    O     O_R   0.999250 0.557660 0.440500 -0.527439
C2    C     C_R   0.656572 0.387837 0.381729 0.730048
O6    O     O_R   0.489400 0.442340 0.559500 -0.518803
O7    O     O_3   0.662500 0.549650 0.509350 -0.364811
V1    V     V_3+5 0.935340 0.490790 0.498270 1.394121
O8    O     O_R   0.329270 0.567090 0.442770 -0.531255
C3    C     C_R   0.161074 0.584160 0.419514 0.706356
O9    O     O_R   0.324340 0.593560 0.587480 -0.532451
C4    C     C_R   0.155082 0.616217 0.615160 0.706060
V2    V     V_3+5 0.435970 0.509210 0.501730 1.399949
O10   O     O_3   0.158940 0.450350 0.490650 -0.357011
C5    C     C_R   0.052876 0.592359 0.757636 -0.141494
C6    C     C_R   0.003248 0.578748 0.825400 -0.118507
C7    C     C_R   0.992642 0.642527 0.889754 -0.118553
C8    C     C_R   0.031256 0.720441 0.886832 -0.132785
C9    C     C_R   0.080542 0.736266 0.818739 0.067994
C10   C     C_R   0.091919 0.670872 0.752788 0.065159
C11   C     C_R   0.120982 0.815477 0.815824 -0.174722
C12   C     C_R   0.171706 0.829261 0.746768 0.068811
C13   C     C_R   0.182474 0.764022 0.680858 0.052964
C14   C     C_R   0.143965 0.684659 0.683906 -0.173771
C15   C     C_R   0.208557 0.907685 0.741713 -0.196843
C16   C     C_R   0.253027 0.921843 0.673716 -0.112499
C17   C     C_R   0.261780 0.858155 0.608124 0.187115
C18   C     C_R   0.227577 0.779955 0.612468 -0.198229
H1    H     H_    0.060996 0.540599 0.709338 0.103470
H2    H     H_    0.973691 0.518297 0.828021 0.117760
H3    H     H_    0.954979 0.631567 0.942328 0.116021
H4    H     H_    0.022835 0.767871 0.938573 0.097271
H5    H     H_    0.201516 0.959305 0.790186 0.113571
H6    H     H_    0.279116 0.983163 0.673315 0.128712
H7    H     H_    0.234224 0.731743 0.561166 0.097781
C19   C     C_1   0.111599 0.863820 0.132554 -0.219546
C20   C     C_1   0.119005 0.821176 0.176087 -0.005958
C21   C     C_1   0.128345 0.770922 0.227962 -0.007622
C22   C     C_1   0.136318 0.728655 0.271803 -0.009681
C23   C     C_1   0.145612 0.678564 0.323788 -0.013277
C24   C     C_1   0.153054 0.636117 0.367460 -0.231725
C25   C     C_1   0.641159 0.363673 0.632308 -0.226513
C26   C     C_1   0.637072 0.320911 0.675744 -0.008855
C27   C     C_1   0.633799 0.270607 0.727577 -0.005581
C28   C     C_1   0.631345 0.228332 0.771456 -0.007393
C29   C     C_1   0.628031 0.178256 0.823493 -0.006143
C30   C     C_1   0.623900 0.135817 0.867220 -0.218823
C31   C     C_R   0.629002 0.410304 0.225631 0.068184
C32   C     C_R   0.546973 0.420092 0.158889 0.176154
C33   C     C_R   0.492597 0.351561 0.102820 -0.154499
C34   C     C_R   0.522155 0.275767 0.110539 -0.204536
C35   C     C_R   0.586636 0.264433 0.177991 0.052424
C36   C     C_R   0.622619 0.332794 0.239823 0.004132
C37   C     C_R   0.619039 0.185766 0.183366 -0.152727
C38   C     C_R   0.665337 0.174012 0.253010 0.065578
C39   C     C_R   0.675222 0.240604 0.317582 0.054378
C40   C     C_R   0.652595 0.320141 0.311789 -0.166802
C41   C     C_R   0.695718 0.096085 0.260050 -0.200218
C42   C     C_R   0.733444 0.083581 0.328938 -0.109882
C43   C     C_R   0.739706 0.148411 0.393560 0.184070
C44   C     C_R   0.709403 0.225959 0.387294 -0.196772
H8    H     H_    0.434699 0.355075 0.050403 0.140522
H9    H     H_    0.488731 0.225964 0.062710 0.126135
H10   H     H_    0.689097 0.043572 0.212399 0.111736
H11   H     H_    0.755581 0.022623 0.330810 0.128195
H12   H     H_    0.714075 0.274706 0.438155 0.100694
O11   O     O_R   0.775690 0.057750 0.940570 -0.520353
O12   O     O_R   0.441200 0.093570 0.087490 -0.536813
O13   O     O_R   0.265840 0.942320 0.059480 -0.521105
C45   C     C_R   0.609530 0.115996 0.115509 0.697895
O14   O     O_R   0.446270 0.067110 0.942790 -0.530220
O15   O     O_R   0.270950 0.915660 0.913750 -0.532056
C46   C     C_R   0.615295 0.084033 0.919380 0.714937
O16   O     O_R   0.770580 0.084400 0.086300 -0.531954
O17   O     O_3   0.602640 0.950400 0.990690 -0.358815
V3    V     V_3+5 0.329740 0.009200 0.001730 1.415224
O18   O     O_R   0.940900 0.906360 0.912450 -0.534945
C47   C     C_R   0.110145 0.883826 0.884698 0.698746
O19   O     O_R   0.935830 0.932820 0.057160 -0.528211
C48   C     C_R   0.103892 0.915900 0.080567 0.713284
V4    V     V_3+5 0.829130 0.990680 0.998180 1.418775
O20   O     O_3   0.106100 0.049590 0.009310 -0.359425
C49   C     C_3   0.305338 0.869462 0.532016 -0.359217
C50   C     C_3   0.330841 0.956394 0.529959 -0.773656
H13   H     H_    0.198857 0.991510 0.550641 0.228767
H14   H     H_    0.456614 0.984527 0.563865 0.229909
H15   H     H_    0.356689 0.957492 0.471587 0.221901
H16   H     H_    0.438639 0.836022 0.509748 0.182624
H17   H     H_    0.185917 0.842417 0.493761 0.183681
C51   C     C_3   0.755153 0.478207 0.271325 -0.391785
C52   C     C_3   0.638124 0.548914 0.318318 -0.692132
H18   H     H_    0.652259 0.601297 0.295567 0.198104
H19   H     H_    0.484003 0.532589 0.318700 0.215845
H20   H     H_    0.690112 0.567613 0.376342 0.244366
H21   H     H_    0.859279 0.457125 0.305725 0.182946
H22   H     H_    0.852092 0.499595 0.233376 0.169943
C53   C     C_3   0.522438 0.503666 0.147919 -0.344128
C54   C     C_3   0.426781 0.507281 0.075459 -0.793777
H23   H     H_    0.516032 0.476025 0.026544 0.228217
H24   H     H_    0.280285 0.480463 0.070874 0.228354
H25   H     H_    0.412765 0.570956 0.075406 0.226895
H26   H     H_    0.431695 0.539988 0.194008 0.194384
H27   H     H_    0.664787 0.533460 0.150129 0.185943
C55   C     C_3   0.777439 0.139096 0.470585 -0.359235
C56   C     C_3   0.818418 0.053629 0.473636 -0.772962
H28   H     H_    0.693079 0.013864 0.452985 0.227329
H29   H     H_    0.948470 0.029656 0.440123 0.230454
H30   H     H_    0.844995 0.054116 0.532244 0.222407
H31   H     H_    0.902916 0.177322 0.494831 0.183148
H32   H     H_    0.650669 0.161901 0.506711 0.183547

loop_
_geom_bond_atom_site_label_1
_geom_bond_atom_site_label_2
_ccdc_geom_bond_type
C52   H18   S    
C36   C40   A    
O12   V3    S    
O14   C46   A    
C22   C23   S    
C35   C36   A    
C7    C8    A    
C12   C15   A    
C45   O16   A    
O19   C48   A    
C49   H17   S    
C51   H22   S    
C55   H32   S    
O17   V3    S    
C33   C34   A    
C17   C18   A    
V4    O20   S    
C16   C17   A    
C3    C24   S    
O5    C3    A    
C19   C20   T    
C50   H14   S    
C55   C56   S    
O17   V4    S    
V2    O10   S    
C13   C18   A    
C37   C38   A    
C6    C7    A    
C54   H23   S    
C44   H12   S    
O8    V2    S    
C28   C29   S    
C37   C45   S    
C56   H28   S    
C30   C46   S    
O1    V2    S    
C11   C47   S    
C34   H9    S    
O7    V1    S    
C17   C49   S    
C1    O6    A    
O13   C48   A    
C8    H4    S    
C53   H26   S    
C41   H10   S    
C52   H19   S    
O15   C47   A    
O9    C4    A    
C19   C48   S    
C56   H29   S    
O16   V4    S    
C2    C40   S    
O19   V4    S    
C51   H21   S    
C31   C32   A    
C55   H31   S    
C32   C53   S    
C53   H27   S    
C35   C37   A    
C32   C33   A    
C12   C13   A    
C33   H8    S    
C20   C21   S    
O4    C2    A    
C50   H13   S    
C38   C41   A    
C1    C25   S    
C15   H5    S    
C13   C14   A    
C49   C50   S    
O14   V3    S    
C54   H25   S    
C18   H7    S    
C41   C42   A    
O2    C1    A    
C43   C44   A    
O11   V4    S    
V3    O20   S    
C42   H11   S    
C53   C54   S    
C11   C12   A    
C54   H24   S    
C5    C6    A    
C4    C14   S    
O3    C4    A    
C31   C51   S    
C21   C22   T    
O6    V2    S    
C9    C11   A    
C7    H3    S    
C5    H1    S    
C56   H30   S    
C6    H2    S    
C23   C24   T    
O2    V1    S    
C25   C26   T    
C39   C44   A    
C27   C28   T    
C29   C30   T    
O1    C2    A    
C5    C10   A    
C50   H15   S    
O5    V1    S    
C49   H16   S    
C34   C35   A    
C43   C55   S    
C52   H20   S    
C31   C36   A    
O9    V2    S    
C39   C40   A    
O4    V1    S    
O3    V1    S    
V1    O10   S    
O18   V4    S    
C38   C39   A    
C51   C52   S    
O11   C46   A    
O7    V2    S    
C42   C43   A    
C10   C14   A    
O18   C47   A    
C26   C27   S    
C8    C9    A    
C16   H6    S    
O15   V3    S    
C15   C16   A    
O12   C45   A    
C9    C10   A    
O13   V3    S    
O8    C3    A    
