data_str_m2_o16_o24_f0_pcu.sym.154
_audit_creation_date              2012-12-10T17:36:48-0500
_audit_creation_method            fapswitch 2.2
_symmetry_space_group_name_H-M    P1
_symmetry_Int_Tables_number       1
_space_group_crystal_system       triclinic
_cell_length_a                    10.609893
_cell_length_b                    12.331671
_cell_length_c                    13.214486
_cell_angle_alpha                 117.553957
_cell_angle_beta                  77.166422
_cell_angle_gamma                 101.482891
_cell_volume                      1485.24783687

loop_
_atom_site_label
_atom_site_type_symbol
_atom_type_description
_atom_site_fract_x
_atom_site_fract_y
_atom_site_fract_z
_atom_type_partial_charge
C1    C     C_R   0.520006 0.854909 0.285879 0.783839
C2    C     C_3   0.019505 0.033120 0.610081 -0.384205
C3    C     C_3   0.932549 0.919850 0.537260 0.507911
C4    C     C_3   0.876932 0.998760 0.500003 -0.079755
C5    C     C_R   0.262878 0.309209 0.996595 -0.199857
C6    C     C_R   0.433790 0.231361 0.833637 -0.059470
C7    C     C_R   0.663945 0.801595 0.094828 0.179823
C8    C     C_R   0.700551 0.714484 0.982402 -0.146158
C9    C     C_R   0.629667 0.599630 0.937956 -0.247588
C10   C     C_R   0.515754 0.569910 0.003430 0.095736
C11   C     C_R   0.467143 0.663994 0.110124 0.035528
C12   C     C_R   0.740244 0.999544 0.499814 0.838178
C13   C     C_R   0.449603 0.449290 0.967513 0.081779
C14   C     C_R   0.328028 0.428356 0.030250 0.119414
C15   C     C_R   0.272693 0.526695 0.125949 -0.234165
C16   C     C_R   0.341450 0.643264 0.165706 -0.208065
C17   C     C_R   0.502562 0.348322 0.872529 -0.296046
C18   C     C_R   0.314080 0.209985 0.898012 0.170822
C19   C     C_R   0.547530 0.775004 0.161054 -0.119394
C20   C     C_R   0.734197 0.366446 0.362001 -0.274172
C21   C     C_R   0.324488 0.762080 0.647046 0.072541
C22   C     C_R   0.288498 0.669219 0.683667 -0.259529
C23   C     C_R   0.474838 0.145703 0.713445 0.813997
C24   C     C_R   0.356938 0.566509 0.632598 -0.151867
C25   C     C_R   0.460894 0.555005 0.542519 -0.045050
C26   C     C_R   0.492385 0.651230 0.506533 0.219594
C27   C     C_R   0.535209 0.451627 0.484662 -0.101942
C28   C     C_R   0.653390 0.460957 0.411880 -0.014838
C29   C     C_R   0.682600 0.561690 0.384736 0.424381
C30   C     C_R   0.579475 0.627710 0.403570 0.171872
C31   C     C_R   0.498753 0.340484 0.495786 0.077185
C32   C     C_R   0.692006 0.258716 0.375032 0.078810
C33   C     C_R   0.259763 0.000635 0.500613 0.806816
C34   C     C_3   0.981084 0.967395 0.391993 -0.288874
C35   C     C_3   0.036788 0.886284 0.429199 -0.199558
C36   C     C_3   0.123202 0.001285 0.500891 -0.105837
C37   C     C_3   0.070512 0.082112 0.462368 -0.193980
C38   C     C_3   0.965377 0.110929 0.569584 0.457362
Cu1   Cu    Cu3+1 0.529830 0.098270 0.475420 0.942791
Cu2   Cu    Cu3+1 0.470170 0.901730 0.524580 0.952222
H1    H     H_    0.069458 0.793918 0.372200 0.141864
H2    H     H_    0.596765 0.357993 0.824023 0.165564
H3    H     H_    0.665482 0.537000 0.851085 0.151679
H4    H     H_    0.787824 0.733444 0.929769 0.142282
H5    H     H_    0.297167 0.716273 0.242485 0.147060
H6    H     H_    0.753887 0.185456 0.336190 0.125812
H7    H     H_    0.826665 0.372984 0.309324 0.149413
H8    H     H_    0.409996 0.327048 0.549221 0.107891
H9    H     H_    0.270226 0.840580 0.686968 0.121789
H10   H     H_    0.963540 0.940313 0.303329 0.155228
H11   H     H_    0.328183 0.498320 0.665493 0.127231
H12   H     H_    0.207879 0.677452 0.752459 0.138649
H13   H     H_    0.130130 0.149323 0.432106 0.145036
H14   H     H_    0.035853 0.060313 0.699102 0.136956
H15   H     H_    0.178020 0.512675 0.172753 0.140602
H16   H     H_    0.170390 0.294176 0.045853 0.130480
N1    N     N_R   0.575030 0.246270 0.438190 -0.181496
N2    N     N_R   0.425760 0.754330 0.561190 -0.190258
O1    O     O_R   0.537510 0.972500 0.318130 -0.573184
O2    O     O_R   0.487140 0.806530 0.359650 -0.579729
O3    O     O_R   0.708330 0.082950 0.479220 -0.575001
O4    O     O_R   0.657960 0.916980 0.520740 -0.536264
O5    O     O_R   0.512860 0.193470 0.640350 -0.577708
O6    O     O_R   0.462490 0.027500 0.681870 -0.575598
O7    O     O_R   0.342040 0.083020 0.479260 -0.593388
O8    O     O_R   0.291670 0.917050 0.520780 -0.608114
C39   C     C_3   0.752788 0.919766 0.142267 -0.865885
H17   H     H_    0.844274 0.918921 0.081683 0.214468
H18   H     H_    0.703146 0.998147 0.157186 0.245806
H19   H     H_    0.779871 0.933892 0.224205 0.218732
O9    O     O_3   0.806765 0.592517 0.337489 -0.575954
C40   C     C_3   0.822762 0.535292 0.215342 0.047152
H20   H     H_    0.738258 0.469910 0.177367 0.134824
H21   H     H_    0.906686 0.480562 0.182634 0.145907
C41   C     C_3   0.854635 0.633518 0.171347 -0.788768
H22   H     H_    0.950525 0.686056 0.193067 0.239128
H23   H     H_    0.858526 0.589633 0.076149 0.209174
H24   H     H_    0.779571 0.698485 0.211792 0.249914
C42   C     C_3   0.510430 0.569445 0.299100 -0.861357
H25   H     H_    0.568229 0.593563 0.230485 0.247224
H26   H     H_    0.497229 0.467308 0.263693 0.202053
H27   H     H_    0.410699 0.596528 0.320938 0.259993
O10   O     O_3   0.917649 0.225843 0.641096 -0.573514
C43   C     C_3   0.019241 0.313348 0.694028 0.088698
H28   H     H_    0.097837 0.327149 0.628193 0.133096
H29   H     H_    0.060659 0.284687 0.747179 0.141453
C44   C     C_3   0.965804 0.435915 0.773272 -0.810467
H30   H     H_    0.888040 0.425714 0.841088 0.245013
H31   H     H_    0.044945 0.505840 0.815350 0.196447
H32   H     H_    0.924860 0.467985 0.722716 0.247158
O11   O     O_3   0.852654 0.836971 0.576980 -0.550704
C45   C     C_3   0.931102 0.771656 0.597848 0.108558
H33   H     H_    0.006175 0.834379 0.652107 0.121362
H34   H     H_    0.979801 0.704309 0.514727 0.167092
C46   C     C_3   0.845884 0.701597 0.662199 -0.781194
H35   H     H_    0.771087 0.635790 0.610184 0.259867
H36   H     H_    0.906674 0.649738 0.678999 0.186772
H37   H     H_    0.796575 0.767017 0.745946 0.244512
C47   C     C_3   0.237581 0.084802 0.861343 -0.889801
H38   H     H_    0.215568 0.051058 0.772828 0.220126
H39   H     H_    0.295010 0.020325 0.863873 0.245503
H40   H     H_    0.143746 0.086334 0.919332 0.220565

loop_
_geom_bond_atom_site_label_1
_geom_bond_atom_site_label_2
_ccdc_geom_bond_type
C44   H30   S    
Cu2   O2    S    
C38   O10   S    
C34   C37   S    
C5    H16   S    
C35   C36   S    
C43   C44   S    
C21   H9    S    
C46   H37   S    
C33   O7    A    
C7    C8    A    
C11   C19   A    
C29   C30   A    
C36   C37   S    
C43   H29   S    
C1    O1    A    
C15   C16   A    
Cu1   N1    S    
C33   C36   S    
Cu2   O4    S    
C3    O11   S    
C34   C35   S    
C41   H23   S    
C17   H2    S    
C46   H35   S    
C8    C9    A    
C4    C12   S    
C9    C10   A    
C37   H13   S    
C24   H11   S    
C23   O5    A    
Cu2   O8    S    
C21   C22   A    
Cu1   O7    S    
C32   N1    A    
C40   C41   S    
C6    C18   A    
C33   O8    A    
Cu1   O3    S    
C4    C34   S    
C9    H3    S    
Cu2   N2    S    
C27   C31   A    
C39   H17   S    
C24   C25   A    
C40   H21   S    
C2    H14   S    
C1    O2    A    
O11   C45   S    
C42   H26   S    
C5    C18   A    
C20   C28   A    
C25   C26   A    
C1    C19   S    
C45   C46   S    
C39   H18   S    
C15   H15   S    
C41   H22   S    
C37   C38   S    
C42   H27   S    
C12   O4    A    
C11   C16   A    
C2    C38   S    
O10   C43   S    
C3    C35   S    
Cu1   O1    S    
C45   H34   S    
C43   H28   S    
C26   N2    A    
C5    C14   A    
C30   C42   S    
C23   O6    A    
C47   H39   S    
C4    C38   S    
C26   C30   A    
C7    C19   A    
C31   H8    S    
C44   H31   S    
C22   C24   A    
C18   C47   S    
C3    C4    S    
Cu1   Cu2   S    
C22   H12   S    
C20   C32   A    
C2    C36   S    
C6    C17   A    
C28   C29   A    
C32   H6    S    
C8    H4    S    
C40   H20   S    
C10   C13   A    
C16   H5    S    
C34   H10   S    
C46   H36   S    
C25   C27   A    
Cu1   O5    S    
Cu2   O6    S    
C47   H38   S    
C13   C17   A    
C39   H19   S    
C31   N1    A    
C2    C3    S    
C21   N2    A    
C12   O3    A    
C6    C23   S    
C45   H33   S    
C35   H1    S    
C41   H24   S    
C20   H7    S    
C10   C11   A    
C7    C39   S    
C42   H25   S    
O9    C40   S    
C47   H40   S    
C44   H32   S    
C27   C28   A    
C14   C15   A    
C13   C14   A    
C29   O9    S    
