data_str_m9_o11_o16_f0_sra.sym.55
_audit_creation_date              2012-12-11T14:17:45-0500
_audit_creation_method            fapswitch 2.2
_symmetry_space_group_name_H-M    P1
_symmetry_Int_Tables_number       1
_space_group_crystal_system       triclinic
_cell_length_a                    6.932025
_cell_length_b                    13.531307
_cell_length_c                    20.492476
_cell_angle_alpha                 101.745404
_cell_angle_beta                  89.913863
_cell_angle_gamma                 90.548485
_cell_volume                      1881.84767329

loop_
_atom_site_label
_atom_site_type_symbol
_atom_type_description
_atom_site_fract_x
_atom_site_fract_y
_atom_site_fract_z
_atom_type_partial_charge
O1    O     O_R   0.506860 0.599390 0.449240 -0.543846
O2    O     O_R   0.180220 0.594600 0.586780 -0.540337
O3    O     O_R   0.004500 0.400610 0.550760 -0.538612
C1    C     C_R   0.348997 0.615579 0.613647 0.763858
O4    O     O_R   0.177490 0.611290 0.451970 -0.539597
O5    O     O_R   0.001750 0.417420 0.414990 -0.526250
C2    C     C_R   0.346905 0.638280 0.435100 0.713888
O6    O     O_R   0.509610 0.582580 0.585010 -0.546497
O7    O     O_3   0.337420 0.436370 0.488020 -0.365068
V1    V     V_3+5 0.064680 0.511800 0.502220 1.451699
O8    O     O_R   0.671710 0.405400 0.413220 -0.548359
C3    C     C_R   0.841687 0.383594 0.387430 0.746918
O9    O     O_R   0.674440 0.388710 0.548030 -0.542180
C4    C     C_R   0.842894 0.361392 0.564653 0.694745
V2    V     V_3+5 0.564010 0.488200 0.497780 1.430314
O10   O     O_3   0.841140 0.563630 0.511980 -0.372914
C5    C     C_R   0.881103 0.109100 0.613484 -0.112466
H1    H     H_    0.873009 0.159551 0.520846 0.114173
H2    H     H_    0.894358 0.031039 0.588256 0.169591
C6    C     C_R   0.851303 0.283439 0.604772 -0.030959
C7    C     C_R   0.849901 0.319117 0.927882 0.233542
C8    C     C_R   0.840187 0.393421 0.889953 -0.138898
C9    C     C_R   0.842973 0.368691 0.820790 -0.191104
C10   C     C_R   0.856536 0.267330 0.786249 0.076677
C11   C     C_R   0.867851 0.190858 0.824518 -0.019168
C12   C     C_R   0.859964 0.239771 0.715137 0.021368
C13   C     C_R   0.877346 0.136353 0.683586 0.097791
C14   C     C_R   0.891341 0.061654 0.722053 0.331016
C15   C     C_R   0.885515 0.089501 0.791620 -0.274311
C16   C     C_R   0.846954 0.311858 0.674036 -0.189348
C17   C     C_R   0.868523 0.182108 0.574585 -0.205477
C18   C     C_R   0.862478 0.217033 0.895307 -0.086179
H3    H     H_    0.833383 0.391343 0.694009 0.091689
H4    H     H_    0.835379 0.431561 0.796162 0.119326
H5    H     H_    0.830722 0.472086 0.914373 0.121947
H6    H     H_    0.896093 0.030393 0.819908 0.135769
C19   C     C_2   0.013159 0.280800 0.287791 0.244471
C20   C     C_2   0.849929 0.318781 0.320903 -0.309903
H7    H     H_    0.709002 0.306799 0.299778 0.134176
C21   C     C_2   0.008623 0.215074 0.218793 -0.195575
C22   C     C_2   0.852570 0.179635 0.180578 0.057421
H8    H     H_    0.149331 0.193120 0.197562 0.112656
C23   C     C_2   0.201240 0.778111 0.786901 0.365173
C24   C     C_2   0.363454 0.816497 0.819534 -0.301606
H9    H     H_    0.504004 0.798721 0.797191 0.086871
C25   C     C_2   0.203126 0.711791 0.718163 -0.210396
C26   C     C_2   0.361207 0.683035 0.680507 -0.329661
H10   H     H_    0.063417 0.684527 0.697827 0.137117
H11   H     H_    0.504292 0.706809 0.698443 0.126653
C27   C     C_R   0.432522 0.889390 0.385658 -0.174025
H12   H     H_    0.457473 0.013709 0.300871 0.124750
H13   H     H_    0.468569 0.966706 0.408885 0.122426
C28   C     C_R   0.360086 0.717427 0.395811 -0.057580
C29   C     C_R   0.322564 0.683988 0.073557 -0.168885
C30   C     C_R   0.306527 0.608826 0.110368 -0.119740
C31   C     C_R   0.319395 0.632554 0.179556 -0.159473
C32   C     C_R   0.349050 0.733433 0.214153 0.091830
C33   C     C_R   0.370372 0.809935 0.175955 0.064299
C34   C     C_R   0.361476 0.760467 0.285268 0.075636
C35   C     C_R   0.406735 0.862172 0.316261 0.094303
C36   C     C_R   0.426412 0.935833 0.277658 -0.185357
C37   C     C_R   0.406509 0.910451 0.208799 -0.197001
C38   C     C_R   0.332696 0.689842 0.326744 -0.274157
C39   C     C_R   0.412226 0.817358 0.425671 0.225165
C40   C     C_R   0.354792 0.784209 0.105506 -0.077259
H14   H     H_    0.291936 0.612520 0.307174 0.103690
H15   H     H_    0.310250 0.663992 0.019800 0.107615
H16   H     H_    0.308016 0.569700 0.204270 0.105961
H17   H     H_    0.283254 0.531280 0.085071 0.126700
H18   H     H_    0.422392 0.970538 0.181385 0.126705
O11   O     O_R   0.203230 0.917310 0.915020 -0.503707
O12   O     O_R   0.535500 0.888690 0.048040 -0.543061
O13   O     O_R   0.711080 0.082610 0.085000 -0.527397
C41   C     C_R   0.366127 0.861227 0.064546 0.681800
O14   O     O_R   0.532630 0.905370 0.913230 -0.551286
O15   O     O_R   0.708190 0.099410 0.949230 -0.536805
C42   C     C_R   0.364594 0.884002 0.886533 0.777625
O16   O     O_R   0.206120 0.900510 0.050790 -0.539839
O17   O     O_3   0.375360 0.063570 0.011990 -0.375020
V3    V     V_3+5 0.648170 0.988200 0.997780 1.461418
O18   O     O_R   0.038240 0.111390 0.951940 -0.544937
C43   C     C_R   0.869882 0.138292 0.935151 0.704139
O19   O     O_R   0.041120 0.094710 0.086750 -0.562199
C44   C     C_R   0.872139 0.114335 0.113708 0.724366
V4    V     V_3+5 0.148810 0.011930 0.002180 1.457716
O20   O     O_3   0.871750 0.936430 0.988010 -0.361198
N1    N     N_3   0.658344 0.199430 0.202461 -0.718216
H19   H     H_    0.586396 0.256433 0.185180 0.239331
H20   H     H_    0.604893 0.161063 0.237963 0.236768
O21   O     O_3   0.026153 0.800850 0.818579 -0.639795
H21   H     H_    0.920676 0.772701 0.787437 0.264379
N2    N     N_3   0.436208 0.848044 0.496438 -0.709500
H22   H     H_    0.509740 0.799673 0.521933 0.243644
H23   H     H_    0.386854 0.918571 0.519539 0.253873
O22   O     O_3   0.910265 0.961608 0.690716 -0.652333
H24   H     H_    0.917450 0.919078 0.724606 0.296757
N3    N     N_3   0.851663 0.348604 0.999619 -0.706633
H25   H     H_    0.851782 0.425544 0.020369 0.241157
H26   H     H_    0.904787 0.294924 0.027655 0.217489
N4    N     N_3   0.200346 0.302703 0.319272 -0.637328
H27   H     H_    0.310051 0.269355 0.288382 0.205807
H28   H     H_    0.226678 0.379646 0.325593 0.227248

loop_
_geom_bond_atom_site_label_1
_geom_bond_atom_site_label_2
_ccdc_geom_bond_type
C33   C37   A    
N1    H19   S    
C27   C39   A    
O22   H24   S    
H12   C36   S    
O11   C42   A    
C1    O6    A    
N3    H25   S    
O21   H21   S    
C26   H11   S    
C29   C40   A    
C6    C16   A    
V4    O20   S    
C8    H5    S    
C15   H6    S    
C12   C13   A    
C14   O22   S    
C14   C15   A    
C10   C12   A    
C19   C21   S    
O5    C3    A    
C20   H7    S    
C28   C39   A    
C32   C34   A    
V2    O10   S    
C31   C32   A    
C37   H18   S    
N4    H27   S    
V3    O20   S    
C25   C26   D    
O8    V2    S    
C27   H13   S    
C9    C10   A    
O1    V2    S    
O14   V3    S    
O13   C44   A    
C11   C18   A    
C21   H8    S    
C38   H14   S    
C34   C35   A    
O11   V4    S    
O9    C4    A    
N4    H28   S    
N3    H26   S    
O18   C43   A    
C11   C15   A    
C22   N1    S    
C7    C18   A    
C25   H10   S    
C23   O21   S    
C5    C13   A    
C4    C6    S    
C10   C11   A    
O12   C41   A    
O15   C43   A    
O4    C2    A    
C29   H15   S    
C31   H16   S    
C22   C44   S    
C40   C41   S    
C35   C36   A    
O2    C1    A    
C23   C24   D    
C19   C20   D    
C7    N3    S    
C33   C40   A    
O19   C44   A    
C9    H4    S    
C30   C31   A    
N2    H23   S    
O14   C42   A    
C30   H17   S    
O3    C4    A    
O16   V4    S    
C21   C22   D    
O19   V4    S    
C12   C16   A    
O6    V2    S    
N1    H20   S    
C5    C17   A    
C39   N2    S    
O2    V1    S    
O17   V4    S    
C24   H9    S    
O7    V1    S    
C29   C30   A    
C24   C42   S    
C16   H3    S    
O1    C2    A    
O15   V3    S    
O5    V1    S    
O8    C3    A    
C18   C43   S    
C34   C38   A    
C27   C35   A    
O9    V2    S    
O7    V2    S    
O4    V1    S    
O12   V3    S    
O3    V1    S    
V1    O10   S    
C28   C38   A    
C32   C33   A    
N2    H22   S    
C5    H2    S    
O13   V3    S    
C3    C20   S    
C36   C37   A    
C23   C25   S    
O17   V3    S    
C41   O16   A    
C13   C14   A    
C2    C28   S    
C8    C9    A    
H1    C17   S    
C7    C8    A    
C6    C17   A    
C19   N4    S    
O18   V4    S    
C1    C26   S    
