data_str_m2_o14_o18_f0_pcu.sym.146
_audit_creation_date              2012-12-10T17:19:54-0500
_audit_creation_method            fapswitch 2.2
_symmetry_space_group_name_H-M    P1
_symmetry_Int_Tables_number       1
_space_group_crystal_system       triclinic
_cell_length_a                    9.726516
_cell_length_b                    10.846439
_cell_length_c                    15.58265
_cell_angle_alpha                 84.718712
_cell_angle_beta                  73.439216
_cell_angle_gamma                 89.998225
_cell_volume                      1568.46447679

loop_
_atom_site_label
_atom_site_type_symbol
_atom_type_description
_atom_site_fract_x
_atom_site_fract_y
_atom_site_fract_z
_atom_type_partial_charge
C1    C     C_R   0.003050 0.263187 0.495234 0.783889
C2    C     C_R   0.670296 0.496282 0.907566 -0.046951
C3    C     C_R   0.769465 0.487738 0.958793 -0.058775
C4    C     C_R   0.522998 0.512395 0.951363 0.088022
C5    C     C_R   0.473003 0.492133 0.046794 -0.001585
C6    C     C_R   0.573693 0.478011 0.095542 -0.341763
C7    C     C_R   0.718718 0.496337 0.051814 0.519713
C8    C     C_R   0.427832 0.560237 0.903882 -0.228388
C9    C     C_R   0.290446 0.592218 0.949523 -0.178765
C10   C     C_R   0.239888 0.567669 0.042717 0.155367
C11   C     C_R   0.327132 0.508947 0.091600 0.100608
C12   C     C_R   0.917365 0.497140 0.671855 0.810719
C13   C     C_R   0.103577 0.604342 0.087827 -0.086384
C14   C     C_R   0.047396 0.574717 0.180222 -0.138157
C15   C     C_R   0.268255 0.477709 0.184830 -0.252152
C16   C     C_R   0.276354 0.119842 0.455276 -0.159841
C17   C     C_R   0.394683 0.059582 0.470880 -0.163349
C18   C     C_R   0.377296 0.941634 0.515916 -0.148534
C19   C     C_R   0.244550 0.879748 0.537810 -0.152148
C20   C     C_R   0.126455 0.935447 0.514437 0.110620
C21   C     C_R   0.137227 0.063178 0.486376 0.100132
C22   C     C_R   0.008454 0.128513 0.491721 -0.126106
C23   C     C_R   0.997354 0.735749 0.508410 0.796397
C24   C     C_R   0.878536 0.062499 0.507008 -0.204530
C25   C     C_R   0.874638 0.934518 0.516584 -0.231005
C26   C     C_R   0.998383 0.869336 0.517476 -0.128899
C27   C     C_R   0.690017 0.681835 0.374265 0.492498
C28   C     C_R   0.630534 0.758651 0.316191 -0.411657
C29   C     C_R   0.486825 0.755393 0.322211 0.430654
C30   C     C_R   0.401460 0.668043 0.382650 -0.173117
C31   C     C_R   0.449810 0.584741 0.441819 0.038377
C32   C     C_R   0.599838 0.587399 0.439999 0.007481
C33   C     C_R   0.548767 0.419570 0.556910 0.576845
C34   C     C_R   0.082564 0.500916 0.328296 0.810497
C35   C     C_R   0.401188 0.418995 0.554942 -0.168952
C36   C     C_R   0.869172 0.492137 0.770583 -0.112246
C37   C     C_R   0.130481 0.513469 0.229553 -0.079350
C38   C     C_R   0.916879 0.475480 0.915704 0.505225
C39   C     C_R   0.966395 0.482109 0.821737 -0.306874
C40   C     C_R   0.722175 0.494888 0.814041 -0.232898
Cu1   Cu    Cu3+1 0.140660 0.499990 0.500010 0.925482
Cu2   Cu    Cu3+1 0.859340 0.500010 0.499990 1.021693
H1    H     H_    0.043025 0.657651 0.050209 0.174170
H2    H     H_    0.779082 0.109666 0.510825 0.185135
H3    H     H_    0.296864 0.209227 0.416695 0.160942
H4    H     H_    0.467545 0.896701 0.531914 0.126434
H5    H     H_    0.774162 0.886523 0.522550 0.164810
H6    H     H_    0.697401 0.820066 0.262451 0.152500
H7    H     H_    0.327637 0.425288 0.224019 0.146087
H8    H     H_    0.295425 0.669539 0.378771 0.238423
H9    H     H_    0.080368 0.476387 0.789415 0.165960
H10   H     H_    0.648714 0.494421 0.773857 0.171495
H11   H     H_    0.543483 0.481220 0.167548 0.172357
H12   H     H_    0.460452 0.585007 0.832211 0.135659
N1    N     N_R   0.648320 0.501210 0.499140 -0.214975
N2    N     N_R   0.352470 0.501290 0.499110 -0.199315
O1    O     O_R   0.118810 0.319640 0.500010 -0.593837
O2    O     O_R   0.881240 0.319660 0.500000 -0.538246
O3    O     O_R   0.055570 0.499980 0.629840 -0.590688
O4    O     O_R   0.818000 0.500010 0.629830 -0.554504
O5    O     O_R   0.118760 0.680340 0.500000 -0.619124
O6    O     O_R   0.881190 0.680360 0.499990 -0.524349
O7    O     O_R   0.182000 0.499990 0.370170 -0.612340
O8    O     O_R   0.944430 0.500020 0.370160 -0.517410
O9    O     O_3   0.801734 0.552587 0.096142 -0.556520
C41   C     C_3   0.766757 0.679936 0.095417 -0.373341
H13   H     H_    0.652269 0.693610 0.131615 0.204296
H14   H     H_    0.792433 0.725300 0.025409 0.160560
H15   H     H_    0.830557 0.729479 0.130502 0.155792
H16   H     H_    0.499493 0.105329 0.449241 0.133376
H17   H     H_    0.235479 0.790123 0.575669 0.162288
O10   O     O_3   0.598048 0.333216 0.612076 -0.550376
C42   C     C_3   0.499838 0.311051 0.698596 -0.383637
H18   H     H_    0.417965 0.239622 0.698720 0.164809
H19   H     H_    0.447976 0.397121 0.724512 0.142901
H20   H     H_    0.559290 0.273557 0.745891 0.201581
O11   O     O_3   0.836963 0.690437 0.359413 -0.529300
C43   C     C_3   0.904419 0.807080 0.321610 -0.340071
H21   H     H_    0.841168 0.885795 0.351703 0.160833
H22   H     H_    0.927400 0.816522 0.247320 0.136611
H23   H     H_    0.010574 0.811759 0.334389 0.192197
O12   O     O_3   0.425660 0.826054 0.263905 -0.574794
C44   C     C_3   0.486248 0.947121 0.240302 -0.319429
H24   H     H_    0.583268 0.948070 0.181591 0.153193
H25   H     H_    0.511633 0.987240 0.297376 0.165614
H26   H     H_    0.407107 0.007863 0.219775 0.186449
H27   H     H_    0.324791 0.351236 0.597964 0.150162
H28   H     H_    0.940628 0.602048 0.213586 0.211891
H29   H     H_    0.223363 0.636702 0.911564 0.156390
O13   O     O_3   0.012962 0.456136 0.965389 -0.568358
C45   C     C_3   0.038357 0.328326 0.974510 -0.305307
H30   H     H_    0.092535 0.294409 0.908264 0.146324
H31   H     H_    0.937172 0.273869 0.008023 0.150357
H32   H     H_    0.111076 0.312534 0.017632 0.194533

loop_
_geom_bond_atom_site_label_1
_geom_bond_atom_site_label_2
_ccdc_geom_bond_type
C33   N1    A    
C41   H14   S    
C16   C21   A    
C34   C37   S    
C42   H18   S    
C39   H9    S    
C19   C20   A    
Cu1   O5    S    
C4    C8    A    
Cu2   O2    S    
O11   C43   S    
C28   C29   A    
C5    C11   A    
C3    C7    A    
C5    C6    A    
C43   H22   S    
C41   H15   S    
C7    O9    S    
C19   H17   S    
C18   C19   A    
Cu1   Cu2   S    
C23   C26   S    
C15   C37   A    
C33   O10   S    
C12   O3    A    
C11   C15   A    
C23   O6    A    
C31   C32   A    
C3    C38   A    
C8    C9    A    
C31   N2    A    
C12   C36   S    
C9    C10   A    
C25   H5    S    
C32   N1    A    
C41   H13   S    
C30   H8    S    
C1    C22   S    
C21   C22   A    
C42   H19   S    
C35   H27   S    
C18   H4    S    
C38   C39   A    
C36   C40   A    
C24   C25   A    
Cu1   O3    S    
C9    H29   S    
C45   H30   S    
C43   H21   S    
C16   C17   A    
C25   C26   A    
C40   H10   S    
C2    C4    A    
Cu1   N2    S    
C29   C30   A    
C1    O1    A    
Cu2   N1    S    
C45   H31   S    
C44   H24   S    
C34   O8    A    
C17   C18   A    
C44   H25   S    
O12   C44   S    
C24   H2    S    
C42   H20   S    
C22   C24   A    
Cu1   O7    S    
C6    H11   S    
Cu2   O4    S    
Cu2   O8    S    
C13   H1    S    
Cu2   O6    S    
C28   H6    S    
C35   N2    A    
C36   C39   A    
O10   C42   S    
C27   O11   S    
C10   C13   A    
C16   H3    S    
C6    C7    A    
C38   O13   S    
C8    H12   S    
C2    C3    A    
Cu1   O1    S    
C29   O12   S    
C1    O2    A    
C14   C37   A    
C43   H23   S    
O13   C45   S    
C30   C31   A    
C20   C26   A    
C4    C5    A    
C34   O7    A    
C33   C35   A    
C15   H7    S    
C10   C11   A    
C27   C32   A    
C14   H28   S    
C12   O4    A    
C2    C40   A    
C23   O5    A    
C44   H26   S    
C20   C21   A    
O9    C41   S    
C27   C28   A    
C13   C14   A    
C17   H16   S    
C45   H32   S    
