data_str_m2_o10_o17_f0_pcu.sym.175
_audit_creation_date              2012-12-10T16:44:42-0500
_audit_creation_method            fapswitch 2.2
_symmetry_space_group_name_H-M    P1
_symmetry_Int_Tables_number       1
_space_group_crystal_system       triclinic
_cell_length_a                    14.95934
_cell_length_b                    8.695068
_cell_length_c                    7.435752
_cell_angle_alpha                 101.879591
_cell_angle_beta                  93.975417
_cell_angle_gamma                 92.324726
_cell_volume                      942.703859627

loop_
_atom_site_label
_atom_site_type_symbol
_atom_type_description
_atom_site_fract_x
_atom_site_fract_y
_atom_site_fract_z
_atom_type_partial_charge
C1    C     C_R   0.493519 0.200864 0.456115 0.849337
C2    C     C_R   0.506450 0.799136 0.543884 0.849083
C3    C     C_R   0.032621 0.221299 0.336477 -0.021896
C4    C     C_R   0.967378 0.778708 0.663532 -0.021870
C5    C     C_2   0.474992 0.036442 0.443708 -0.269014
C6    C     C_2   0.524955 0.963559 0.556279 -0.269048
C7    C     C_R   0.329106 0.499161 0.502781 0.798672
C8    C     C_R   0.670894 0.500842 0.497220 0.798610
C9    C     C_R   0.818934 0.637137 0.582267 -0.187553
C10   C     C_R   0.181064 0.362869 0.417738 -0.187496
C11   C     C_R   0.767049 0.503364 0.491064 -0.083612
C12   C     C_R   0.232950 0.496642 0.508938 -0.083635
C13   C     C_R   0.806555 0.370657 0.399160 -0.196731
C14   C     C_R   0.193445 0.629351 0.600841 -0.196764
C15   C     C_R   0.899626 0.367694 0.404943 0.126352
C16   C     C_R   0.100374 0.632314 0.595060 0.126361
C17   C     C_R   0.953116 0.502520 0.496210 0.028868
C18   C     C_R   0.046883 0.497488 0.503795 0.028877
C19   C     C_R   0.912637 0.641859 0.579917 0.083567
C20   C     C_R   0.087362 0.358149 0.420090 0.083524
C21   C     C_R   0.939382 0.229875 0.325522 -0.253126
C22   C     C_R   0.060618 0.770133 0.674483 -0.253132
Cu1   Cu    Cu3+1 0.510010 0.517380 0.684380 0.998901
Cu2   Cu    Cu3+1 0.489990 0.482620 0.315620 0.998884
H1    H     H_    0.784877 0.734938 0.656390 0.208988
H2    H     H_    0.215120 0.265066 0.343617 0.209151
H3    H     H_    0.764685 0.267615 0.330376 0.148703
H4    H     H_    0.235315 0.732393 0.669623 0.148688
H5    H     H_    0.897198 0.126190 0.260121 0.157291
H6    H     H_    0.102801 0.873817 0.739884 0.157299
H7    H     H_    0.430706 0.378004 0.949189 0.240965
H8    H     H_    0.569295 0.621996 0.050811 0.240957
N1    N     N_2   0.474890 0.456420 0.038520 -0.208691
N2    N     N_2   0.525110 0.543580 0.961480 -0.208699
O1    O     O_R   0.506510 0.286130 0.619770 -0.615682
O2    O     O_R   0.493490 0.713870 0.380230 -0.615784
O3    O     O_R   0.489600 0.256770 0.308360 -0.529968
O4    O     O_R   0.510400 0.743230 0.691640 -0.529938
O5    O     O_R   0.378710 0.514640 0.655720 -0.586996
O6    O     O_R   0.621290 0.485360 0.344280 -0.586956
O7    O     O_R   0.361800 0.485290 0.344300 -0.572379
O8    O     O_R   0.638200 0.514710 0.655700 -0.572375
C23   C     C_2   0.067816 0.064833 0.265277 0.367092
H9    H     H_    0.029350 0.981820 0.155410 0.058993
O9    O     O_2   0.136058 0.022285 0.335738 -0.542103
C24   C     C_2   0.932184 0.935173 0.734741 0.367035
H10   H     H_    0.970655 0.018188 0.844598 0.059028
O10   O     O_2   0.863935 0.977719 0.664300 -0.542254
C25   C     C_2   0.390250 0.964138 0.333958 0.430791
H11   H     H_    0.357977 0.857278 0.358682 0.090602
O11   O     O_2   0.354036 0.026148 0.216996 -0.521207
C26   C     C_2   0.609694 0.035885 0.666041 0.430986
H12   H     H_    0.642091 0.142503 0.640934 0.090391
O12   O     O_2   0.645732 0.974196 0.783504 -0.521090

loop_
_geom_bond_atom_site_label_1
_geom_bond_atom_site_label_2
_ccdc_geom_bond_type
Cu1   Cu2   S    
H7    N1    S    
C10   C20   A    
Cu1   O4    S    
C4    C22   A    
C2    O4    A    
Cu1   O1    S    
Cu2   N1    S    
C1    C5    S    
C1    O3    A    
C23   H9    S    
Cu1   N2    S    
C3    C23   S    
C10   H2    S    
C13   C15   A    
Cu2   O3    S    
C9    H1    S    
C3    C20   A    
C23   O9    D    
C4    C24   S    
Cu2   O7    S    
C9    C11   A    
C5    C25   S    
Cu2   O2    S    
Cu1   O8    S    
C10   C12   A    
C8    C11   S    
Cu1   O5    S    
C17   C19   A    
C26   O12   D    
C17   C18   A    
C18   C20   A    
C7    O7    A    
C5    C6    D    
C22   H6    S    
C14   C16   A    
C7    C12   S    
C3    C21   A    
C11   C13   A    
C8    O8    A    
C24   O10   D    
C6    C26   S    
C15   C21   A    
N1    N2    D    
C26   H12   S    
C1    O1    A    
C16   C18   A    
C25   H11   S    
C2    O2    A    
C15   C17   A    
C7    O5    A    
C24   H10   S    
Cu2   O6    S    
C16   C22   A    
C8    O6    A    
C14   H4    S    
C4    C19   A    
C21   H5    S    
C9    C19   A    
C13   H3    S    
C2    C6    S    
C12   C14   A    
C25   O11   D    
H8    N2    S    
