data_str_m9_o5_o13_f0_sra.sym.90
_audit_creation_date              2012-12-11T17:12:52-0500
_audit_creation_method            fapswitch 2.2
_symmetry_space_group_name_H-M    P1
_symmetry_Int_Tables_number       1
_space_group_crystal_system       triclinic
_cell_length_a                    17.085336
_cell_length_b                    6.88296
_cell_length_c                    14.549985
_cell_angle_alpha                 89.999809
_cell_angle_beta                  110.157196
_cell_angle_gamma                 90.000023
_cell_volume                      1606.24430113

loop_
_atom_site_label
_atom_site_type_symbol
_atom_type_description
_atom_site_fract_x
_atom_site_fract_y
_atom_site_fract_z
_atom_type_partial_charge
O1    O     O_R   0.314130 0.635770 0.168990 -0.537772
O2    O     O_R   0.685870 0.364230 0.831010 -0.537771
O3    O     O_R   0.185870 0.135770 0.331010 -0.537773
O4    O     O_R   0.814130 0.864230 0.668990 -0.537772
O5    O     O_R   0.146800 0.302460 0.139760 -0.535080
O6    O     O_R   0.853200 0.697540 0.860240 -0.535079
O7    O     O_R   0.353200 0.802460 0.360240 -0.535079
O8    O     O_R   0.646800 0.197540 0.639760 -0.535079
C1    C     C_R   0.113914 0.475888 0.112960 0.720173
C2    C     C_R   0.886086 0.524112 0.887040 0.720175
C3    C     C_R   0.386086 0.975888 0.387040 0.720174
C4    C     C_R   0.613914 0.024112 0.612960 0.720174
O9    O     O_R   0.311100 0.305780 0.157130 -0.544492
O10   O     O_R   0.688900 0.694220 0.842870 -0.544493
O11   O     O_R   0.188900 0.805780 0.342870 -0.544492
O12   O     O_R   0.811100 0.194220 0.657130 -0.544492
O13   O     O_R   0.351340 0.139640 0.348510 -0.541267
O14   O     O_R   0.648660 0.860360 0.651490 -0.541267
O15   O     O_R   0.148660 0.639640 0.151490 -0.541265
O16   O     O_R   0.851340 0.360360 0.848510 -0.541265
C5    C     C_R   0.334564 0.474512 0.138358 0.714033
C6    C     C_R   0.665436 0.525487 0.861641 0.714033
C7    C     C_R   0.165436 0.974512 0.361641 0.714037
C8    C     C_R   0.834564 0.025488 0.638358 0.714035
C9    C     C_1   0.533532 0.008757 0.533192 -0.197892
C10   C     C_1   0.466468 0.991243 0.466807 -0.197891
C11   C     C_1   0.966468 0.508757 0.966807 -0.197891
C12   C     C_1   0.033532 0.491243 0.033192 -0.197893
O17   O     O_3   0.263010 0.470920 0.312770 -0.372798
O18   O     O_3   0.736990 0.529080 0.687230 -0.372798
O19   O     O_3   0.236990 0.970920 0.187230 -0.372799
O20   O     O_3   0.763010 0.029080 0.812770 -0.372799
V1    V     V_3+5 0.247590 0.194450 0.238360 1.418471
V2    V     V_3+5 0.752410 0.805550 0.761640 1.418471
V3    V     V_3+5 0.252410 0.694450 0.261640 1.418474
V4    V     V_3+5 0.747590 0.305550 0.738360 1.418473
C13   C     C_R   0.114288 0.982365 0.424702 -0.078847
C14   C     C_R   0.885712 0.017636 0.575297 -0.078847
C15   C     C_R   0.385712 0.482366 0.075297 -0.078848
C16   C     C_R   0.614288 0.517634 0.924702 -0.078848
C17   C     C_R   0.893382 0.053480 0.413132 -0.172087
C18   C     C_R   0.106618 0.946523 0.586868 -0.172089
C19   C     C_R   0.606617 0.553487 0.086866 -0.172091
C20   C     C_R   0.393383 0.446514 0.913133 -0.172091
C21   C     C_R   0.847361 0.054598 0.475525 -0.192894
C22   C     C_R   0.152639 0.945405 0.524474 -0.192892
C23   C     C_R   0.652638 0.554602 0.024473 -0.192893
C24   C     C_R   0.347361 0.445398 0.975526 -0.192893
C25   C     C_R   0.972180 0.978651 0.613883 -0.065350
C26   C     C_R   0.027820 0.021349 0.386117 -0.065350
C27   C     C_R   0.527820 0.478643 0.886118 -0.065349
C28   C     C_R   0.472179 0.521357 0.113882 -0.065349
C29   C     C_R   0.019893 0.980629 0.550757 0.101547
C30   C     C_R   0.980107 0.019372 0.449243 0.101548
C31   C     C_R   0.480107 0.480625 0.949243 0.101547
C32   C     C_R   0.519893 0.519376 0.050756 0.101548
H1    H     H_    0.219008 0.916253 0.554423 0.110881
H2    H     H_    0.780993 0.083751 0.445577 0.110882
H3    H     H_    0.280994 0.416242 0.945579 0.110883
H4    H     H_    0.719006 0.583759 0.054420 0.110883
H5    H     H_    0.860008 0.080179 0.336297 0.139158
H6    H     H_    0.139993 0.919826 0.663704 0.139157
H7    H     H_    0.639991 0.580190 0.163701 0.139158
H8    H     H_    0.360009 0.419812 0.836298 0.139158
C33   C     C_R   0.987200 0.057837 0.279840 0.071843
C34   C     C_R   0.959379 0.245285 0.245939 -0.129854
C35   C     C_R   0.914323 0.276038 0.146808 -0.136599
C36   C     C_R   0.898034 0.120741 0.080953 -0.081850
C37   C     C_R   0.926954 0.934675 0.114028 -0.118481
C38   C     C_R   0.971435 0.902817 0.213226 -0.132289
H9    H     H_    0.970821 0.366001 0.296642 0.108936
H10   H     H_    0.891544 0.419962 0.121180 0.097678
H11   H     H_    0.862587 0.144173 0.004436 0.137545
H12   H     H_    0.913681 0.814691 0.063067 0.116642
H13   H     H_    0.992043 0.757218 0.238432 0.100634
C39   C     C_R   0.012799 0.942158 0.720160 0.071844
C40   C     C_R   0.028558 0.097171 0.786777 -0.132288
C41   C     C_R   0.073039 0.065309 0.885975 -0.118482
C42   C     C_R   0.101963 0.879245 0.919047 -0.081850
C43   C     C_R   0.085679 0.723953 0.853189 -0.136600
C44   C     C_R   0.040625 0.754710 0.754058 -0.129857
H14   H     H_    0.007947 0.242770 0.761573 0.100635
H15   H     H_    0.086308 0.185289 0.936938 0.116648
H16   H     H_    0.137410 0.855811 0.995563 0.137545
H17   H     H_    0.108462 0.580030 0.878815 0.097679
H18   H     H_    0.029187 0.633998 0.703352 0.108939
C45   C     C_R   0.512798 0.557856 0.220159 0.071846
C46   C     C_R   0.540623 0.745306 0.254054 -0.129855
C47   C     C_R   0.585678 0.776067 0.353185 -0.136602
C48   C     C_R   0.601962 0.620777 0.419045 -0.081851
C49   C     C_R   0.573038 0.434710 0.385976 -0.118480
C50   C     C_R   0.528558 0.402844 0.286779 -0.132289
H19   H     H_    0.529184 0.866016 0.203347 0.108939
H20   H     H_    0.608460 0.919992 0.378809 0.097678
H21   H     H_    0.637410 0.644215 0.495561 0.137543
H22   H     H_    0.586307 0.314731 0.436941 0.116648
H23   H     H_    0.507946 0.257243 0.261576 0.100635
C51   C     C_R   0.487202 0.442142 0.779841 0.071845
C52   C     C_R   0.471443 0.597151 0.713220 -0.132289
C53   C     C_R   0.426962 0.565282 0.614023 -0.118480
C54   C     C_R   0.398037 0.379217 0.580955 -0.081853
C55   C     C_R   0.414321 0.223930 0.646816 -0.136604
C56   C     C_R   0.459376 0.254693 0.745947 -0.129857
H24   H     H_    0.492055 0.742750 0.738421 0.100635
H25   H     H_    0.413694 0.685259 0.563057 0.116650
H26   H     H_    0.362590 0.355778 0.504440 0.137543
H27   H     H_    0.391539 0.080006 0.621194 0.097680
H28   H     H_    0.470814 0.133985 0.796655 0.108941

loop_
_geom_bond_atom_site_label_1
_geom_bond_atom_site_label_2
_ccdc_geom_bond_type
C2    C11   S    
C16   C23   A    
C31   C32   A    
O1    C5    A    
C54   C55   A    
O3    C7    A    
C17   H5    S    
C45   C46   A    
C19   H7    S    
C48   H21   S    
C14   C25   A    
C29   C30   A    
C20   H8    S    
O7    C3    A    
C53   H25   S    
C26   C30   A    
O10   V2    S    
O20   V4    S    
C18   C29   A    
O8    V4    S    
C42   H16   S    
O4    C8    A    
O3    V1    S    
C33   C38   A    
O17   V1    S    
C35   H10   S    
C18   C22   A    
C47   H20   S    
C14   C21   A    
C23   H4    S    
C41   H15   S    
C1    O15   A    
C52   C53   A    
C2    O16   A    
C36   C37   A    
O5    V1    S    
C51   C56   A    
O2    C6    A    
C8    C14   S    
O19   V1    S    
C56   H28   S    
C18   H6    S    
C44   H18   S    
C13   C22   A    
C40   C41   A    
C27   C51   S    
O11   C7    A    
C52   H24   S    
C49   H22   S    
O12   C8    A    
C45   C50   A    
O9    V1    S    
C55   C56   A    
O13   V1    S    
O11   V3    S    
C50   H23   S    
O4    V2    S    
C21   H2    S    
O18   V2    S    
C35   C36   A    
C55   H27   S    
C34   C35   A    
C39   C40   A    
C49   C50   A    
C41   C42   A    
C3    C10   S    
C36   H11   S    
C7    C13   S    
O6    V2    S    
O20   V2    S    
O5    C1    A    
C43   H17   S    
C34   H9    S    
C5    C15   S    
O8    C4    A    
C6    C16   S    
C25   C39   S    
O9    C5    A    
C37   H12   S    
O14   V2    S    
C51   C52   A    
C22   H1    S    
O19   V3    S    
C11   C12   T    
O1    V3    S    
C24   H3    S    
O2    V4    S    
C54   H26   S    
C46   H19   S    
C3    O13   A    
O7    V3    S    
C28   C45   S    
C43   C44   A    
C39   C44   A    
O6    C2    A    
C16   C27   A    
O17   V3    S    
O18   V4    S    
C4    C9    S    
O10   C6    A    
C9    C10   T    
O15   V3    S    
O12   V4    S    
C13   C26   A    
C20   C31   A    
C48   C49   A    
C40   H14   S    
C25   C29   A    
C53   C54   A    
C15   C28   A    
C27   C31   A    
C37   C38   A    
C26   C33   S    
C17   C30   A    
C42   C43   A    
O16   V4    S    
C28   C32   A    
C19   C32   A    
C46   C47   A    
C33   C34   A    
C4    O14   A    
C38   H13   S    
C17   C21   A    
C47   C48   A    
C19   C23   A    
C20   C24   A    
C1    C12   S    
C15   C24   A    
