data_str_m2_o1_o17_f0_pcu.sym.71
_audit_creation_date              2012-10-26T20:43:05-0400
_audit_creation_method            fapswitch 2.2
_symmetry_space_group_name_H-M    P1
_symmetry_Int_Tables_number       1
_space_group_crystal_system       triclinic
_cell_length_a                    10.868349
_cell_length_b                    9.504173
_cell_length_c                    15.095775
_cell_angle_alpha                 89.995685
_cell_angle_beta                  89.580225
_cell_angle_gamma                 89.996843
_cell_volume                      1559.2712276

loop_
_atom_site_label
_atom_site_type_symbol
_atom_type_description
_atom_site_fract_x
_atom_site_fract_y
_atom_site_fract_z
_atom_type_partial_charge
C1    C     C_R   0.261993 0.499930 0.498787 0.550216
C2    C     C_R   0.128178 0.499637 0.497684 0.025759
C3    C     C_R   0.421444 0.074473 0.446950 0.010812
C4    C     C_R   0.578554 0.925512 0.553051 0.008198
C5    C     C_R   0.578556 0.074452 0.553049 0.010787
C6    C     C_R   0.421447 0.925533 0.446948 0.008135
C7    C     C_R   0.500909 0.500167 0.328794 0.550268
C8    C     C_R   0.499102 0.500154 0.671208 0.550319
C9    C     C_R   0.608265 0.500558 0.812821 -0.152718
C10   C     C_R   0.391791 0.500146 0.187173 -0.152745
C11   C     C_R   0.496422 0.501830 0.767839 -0.009352
C12   C     C_R   0.738010 0.499923 0.501170 0.550184
C13   C     C_R   0.503621 0.501883 0.232165 -0.009379
C14   C     C_R   0.384384 0.514718 0.814864 -0.035192
C15   C     C_R   0.615633 0.515318 0.185161 -0.035296
C16   C     C_R   0.385671 0.523727 0.908672 0.002072
C17   C     C_R   0.614345 0.524213 0.091340 0.001988
C18   C     C_R   0.498791 0.510634 0.953356 0.025973
C19   C     C_R   0.501259 0.510661 0.046652 0.026002
C20   C     C_R   0.610196 0.507183 0.905196 -0.001435
C21   C     C_R   0.389851 0.506831 0.094803 -0.001460
C22   C     C_R   0.278765 0.554732 0.959530 -0.016675
C23   C     C_R   0.278685 0.526146 0.050444 -0.140904
C24   C     C_R   0.721188 0.555432 0.040454 -0.016770
C25   C     C_R   0.265893 0.506949 0.767464 0.038014
C26   C     C_R   0.218375 0.626872 0.725766 -0.060758
C27   C     C_R   0.095701 0.628876 0.698905 -0.095907
C28   C     C_R   0.022139 0.509056 0.708985 -0.099261
C29   C     C_R   0.071591 0.386410 0.745178 -0.125511
C30   C     C_R   0.192850 0.385618 0.775304 -0.092242
C31   C     C_R   0.734130 0.508599 0.232639 0.037985
C32   C     C_R   0.780700 0.628976 0.274378 -0.060455
C33   C     C_R   0.903328 0.632191 0.301315 -0.095490
C34   C     C_R   0.721314 0.526795 0.949550 -0.140795
C35   C     C_R   0.977857 0.513140 0.291174 -0.098819
C36   C     C_R   0.929384 0.390016 0.254933 -0.125542
C37   C     C_R   0.808128 0.388000 0.224797 -0.092467
C38   C     C_R   0.195038 0.668100 0.930010 0.039063
C39   C     C_R   0.242137 0.805378 0.921311 -0.098254
C40   C     C_R   0.166221 0.915744 0.894423 -0.122025
C41   C     C_R   0.042720 0.890191 0.875795 -0.101829
C42   C     C_R   0.995069 0.754398 0.884271 -0.093541
C43   C     C_R   0.070635 0.643244 0.911956 -0.078383
C44   C     C_R   0.805009 0.668683 0.069986 0.039363
C45   C     C_R   0.063787 0.371809 0.498879 -0.134834
C46   C     C_R   0.757959 0.805933 0.078971 -0.098166
C47   C     C_R   0.834032 0.916201 0.105773 -0.122070
C48   C     C_R   0.957648 0.890580 0.123990 -0.101848
C49   C     C_R   0.005246 0.754806 0.115230 -0.093114
C50   C     C_R   0.929504 0.643751 0.087683 -0.077936
C51   C     C_R   0.936298 0.627320 0.502626 -0.153364
C52   C     C_R   0.936234 0.371803 0.500560 -0.134968
C53   C     C_R   0.063694 0.627342 0.497587 -0.153599
C54   C     C_R   0.871829 0.499619 0.502181 0.025821
Cu1   Cu    Cu3+1 0.500000 0.640660 0.500000 0.923847
Cu2   Cu    Cu3+1 0.500000 0.359340 0.500000 0.939838
H1    H     H_    0.693941 0.498316 0.775450 0.091843
H2    H     H_    0.641417 0.869261 0.595535 0.104995
H3    H     H_    0.641426 0.130674 0.595532 0.104564
H4    H     H_    0.358584 0.869298 0.404464 0.104985
H5    H     H_    0.273123 0.721735 0.720370 0.121753
H6    H     H_    0.056807 0.724557 0.672205 0.104521
H7    H     H_    0.926687 0.511529 0.689261 0.106946
H8    H     H_    0.014720 0.293650 0.752734 0.097796
H9    H     H_    0.228337 0.292628 0.807801 0.101736
H10   H     H_    0.725197 0.723277 0.279794 0.121698
H11   H     H_    0.941416 0.728197 0.328165 0.104162
H12   H     H_    0.306115 0.497548 0.224535 0.091874
H13   H     H_    0.073296 0.516569 0.310898 0.106927
H14   H     H_    0.987015 0.297861 0.247339 0.097766
H15   H     H_    0.773396 0.294681 0.192251 0.101676
H16   H     H_    0.337887 0.826773 0.935568 0.108187
H17   H     H_    0.203236 0.020989 0.887839 0.101334
H18   H     H_    0.983964 0.975516 0.854496 0.099043
H19   H     H_    0.899703 0.736196 0.868443 0.101594
H20   H     H_    0.033096 0.538209 0.918087 0.099485
H21   H     H_    0.662135 0.827384 0.065000 0.108080
H22   H     H_    0.797059 0.021429 0.112580 0.101362
H23   H     H_    0.194700 0.538178 0.088345 0.097322
H24   H     H_    0.016539 0.975834 0.145179 0.099043
H25   H     H_    0.100725 0.736544 0.130671 0.101779
H26   H     H_    0.967010 0.538736 0.081308 0.099152
H27   H     H_    0.805277 0.538933 0.911654 0.097398
H28   H     H_    0.111702 0.271892 0.498630 0.121942
H29   H     H_    0.888461 0.727273 0.504225 0.118387
H30   H     H_    0.888330 0.271886 0.500501 0.121978
H31   H     H_    0.111518 0.727307 0.496308 0.118484
H32   H     H_    0.358575 0.130711 0.404466 0.104534
N1    N     N_R   0.500000 0.852070 0.500000 -0.226388
N2    N     N_R   0.500000 0.147930 0.500000 -0.224155
O1    O     O_R   0.319640 0.618740 0.499990 -0.513019
O2    O     O_R   0.680360 0.381260 0.500010 -0.509732
O3    O     O_R   0.680360 0.618740 0.500010 -0.512976
O4    O     O_R   0.319640 0.381260 0.499990 -0.509590
O5    O     O_R   0.499970 0.618800 0.370260 -0.506512
O6    O     O_R   0.500030 0.381200 0.629740 -0.497557
O7    O     O_R   0.500030 0.618800 0.629740 -0.506342
O8    O     O_R   0.499970 0.381200 0.370260 -0.497612

loop_
_geom_bond_atom_site_label_1
_geom_bond_atom_site_label_2
_ccdc_geom_bond_type
Cu1   Cu2   S    
C7    O8    A    
C41   C42   A    
C35   C36   A    
C8    O6    A    
Cu2   O8    S    
Cu1   O3    S    
C3    C6    A    
C51   H29   S    
C37   H15   S    
Cu2   O4    S    
C50   H26   S    
C42   H19   S    
C3    N2    A    
C28   C29   A    
C19   C21   A    
C26   H5    S    
C18   C19   A    
C38   C39   A    
C11   C14   A    
C22   C38   S    
C43   H20   S    
C40   H17   S    
C15   C17   A    
C1    C2    S    
C49   H25   S    
Cu1   O1    S    
C17   C19   A    
C41   H18   S    
C31   C32   A    
C44   C46   A    
C1    O4    A    
C39   H16   S    
C42   C43   A    
C9    H1    S    
C5    N2    A    
C20   C34   A    
C52   C54   A    
Cu2   N2    S    
C29   H8    S    
C2    C45   A    
C36   H14   S    
C10   C21   A    
C17   C24   A    
C5    H3    S    
C6    H4    S    
Cu1   O5    S    
C39   C40   A    
C45   C52   A    
C25   C26   A    
C10   C13   A    
C24   C34   A    
C31   C37   A    
C51   C53   A    
C8    O7    A    
C29   C30   A    
C27   H6    S    
C9    C20   A    
C47   C48   A    
C7    C13   S    
Cu1   O7    S    
C26   C27   A    
C53   H31   S    
C9    C11   A    
C16   C18   A    
C48   C49   A    
C13   C15   A    
C24   C44   S    
C14   C16   A    
C12   O3    A    
C45   H28   S    
C34   H27   S    
C33   H11   S    
C32   H10   S    
C4    N1    A    
C44   C50   A    
C25   C30   A    
Cu2   O6    S    
C46   C47   A    
C40   C41   A    
C16   C22   A    
C3    H32   S    
C12   O2    A    
C4    C5    A    
C2    C53   A    
C46   H21   S    
C15   C31   S    
C10   H12   S    
C6    N1    A    
C7    O5    A    
C51   C54   A    
C32   C33   A    
C48   H24   S    
C21   C23   A    
C38   C43   A    
Cu1   N1    S    
C8    C11   S    
C52   H30   S    
C33   C35   A    
C18   C20   A    
C14   C25   S    
C30   H9    S    
C28   H7    S    
Cu2   O2    S    
C35   H13   S    
C36   C37   A    
C49   C50   A    
C1    O1    A    
C4    H2    S    
C27   C28   A    
C22   C23   A    
C47   H22   S    
C23   H23   S    
C12   C54   S    
