data_str_m3_o4_o10_f0_pcu.sym.78
_audit_creation_date              2012-12-10T20:25:46-0500
_audit_creation_method            fapswitch 2.2
_symmetry_space_group_name_H-M    P1
_symmetry_Int_Tables_number       1
_space_group_crystal_system       triclinic
_cell_length_a                    8.571107
_cell_length_b                    10.643124
_cell_length_c                    9.932232
_cell_angle_alpha                 89.270712
_cell_angle_beta                  98.036508
_cell_angle_gamma                 91.504345
_cell_volume                      896.80659426

loop_
_atom_site_label
_atom_site_type_symbol
_atom_type_description
_atom_site_fract_x
_atom_site_fract_y
_atom_site_fract_z
_atom_type_partial_charge
C1    C     C_R   0.497706 0.260370 0.500621 0.905107
C2    C     C_R   0.415489 0.410880 0.920145 0.190967
C3    C     C_3   0.438195 0.272762 0.918594 -0.477409
C4    C     C_R   0.201993 0.490513 0.465001 0.843241
C5    C     C_3   0.437975 0.272348 0.071198 -0.444205
C6    C     C_R   0.498253 0.739544 0.499511 0.893761
C7    C     C_R   0.797900 0.494289 0.534782 1.011501
C8    C     C_2   0.039280 0.460003 0.448909 0.314352
C9    C     C_2   0.962816 0.495148 0.550497 -0.527889
C10   C     C_R   0.555686 0.063680 0.616750 0.111195
C11   C     C_R   0.484801 0.128222 0.502983 -0.076198
C12   C     C_R   0.392797 0.933995 0.396054 -0.174212
C13   C     C_R   0.393520 0.064050 0.396243 -0.195082
C14   C     C_R   0.486365 0.871205 0.501005 -0.079884
C15   C     C_R   0.556603 0.935603 0.615559 0.128158
C16   C     C_3   0.722486 0.931073 0.685307 -0.453180
C17   C     C_3   0.721944 0.073484 0.686196 -0.464936
C18   C     C_R   0.415061 0.410867 0.062165 0.182721
C19   C     C_R   0.575768 0.594295 0.075888 0.498169
C20   C     C_R   0.571921 0.593288 0.932782 -0.171116
H1    H     H_    0.630006 0.666917 0.880921 0.195634
H2    H     H_    0.804615 0.892551 0.619759 0.212833
H3    H     H_    0.730209 0.112649 0.790146 0.210097
H4    H     H_    0.803524 0.118237 0.620902 0.227052
H5    H     H_    0.054303 0.229560 0.180371 0.371849
H6    H     H_    0.616232 0.917469 0.190403 0.384302
H7    H     H_    0.334715 0.222009 0.862221 0.210954
H8    H     H_    0.553916 0.248490 0.889021 0.220309
H9    H     H_    0.334094 0.220995 0.101858 0.212526
H10   H     H_    0.553295 0.247008 0.129733 0.247652
H11   H     H_    0.021873 0.541296 0.641522 0.167450
H12   H     H_    0.328103 0.113801 0.312099 0.192577
H13   H     H_    0.325385 0.883334 0.312548 0.206871
H14   H     H_    0.729741 0.888244 0.788571 0.237607
N1    N     N_R   0.498950 0.499140 0.142680 -0.165909
N2    N     N_R   0.498950 0.499180 0.857030 -0.141206
O1    O     O_R   0.500020 0.316790 0.614690 -0.635465
O2    O     O_2   0.884491 0.440530 0.194421 -0.271237
O3    O     O_3   0.106552 0.281142 0.256824 -0.593512
O4    O     O_2   0.771017 0.701053 0.291098 -0.267440
O5    O     O_2   0.796869 0.776226 0.064418 -0.338734
O6    O     O_3   0.550991 0.840712 0.166066 -0.583834
O7    O     O_R   0.500000 0.316760 0.385350 -0.594147
O8    O     O_R   0.271760 0.500010 0.587850 -0.646210
O9    O     O_R   0.271740 0.499970 0.358500 -0.564219
O10   O     O_R   0.500000 0.683240 0.614650 -0.636027
O11   O     O_R   0.499980 0.683210 0.385310 -0.549045
O12   O     O_R   0.728260 0.500030 0.641500 -0.628558
O13   O     O_R   0.728240 0.499990 0.412150 -0.503491
O14   O     O_2   0.841240 0.268842 0.353832 -0.339828
S1    S     S_3+6 0.960681 0.361147 0.310246 0.034748
S2    S     S_3+6 0.680696 0.727305 0.154023 0.049500
Zn1   Zn    Zn3+2 0.500010 0.500020 0.653130 0.960599
Zn2   Zn    Zn3+2 0.499990 0.499980 0.346870 1.101241

loop_
_geom_bond_atom_site_label_1
_geom_bond_atom_site_label_2
_ccdc_geom_bond_type
O3    S1    S    
C5    C18   S    
C2    C18   A    
C6    O10   A    
C18   N1    A    
C13   H12   S    
C19   C20   A    
C1    C11   S    
O5    S2    D    
C1    O1    A    
C4    C8    S    
O1    Zn1   S    
C7    O12   A    
C3    H7    S    
C2    C3    S    
C12   H13   S    
C19   N1    A    
H5    O3    S    
N1    Zn2   S    
C12   C13   A    
C11   C13   A    
C8    S1    S    
C7    O13   A    
C17   H3    S    
O11   Zn2   S    
C19   S2    S    
O10   Zn1   S    
C3    H8    S    
C12   C14   A    
O9    Zn2   S    
O14   S1    D    
C5    H9    S    
C4    O9    A    
O2    S1    D    
O12   Zn1   S    
O7    Zn2   S    
C17   H4    S    
C6    C14   S    
C10   C11   A    
C9    H11   S    
C10   C17   S    
O13   Zn2   S    
C20   N2    A    
C20   H1    S    
H6    O6    S    
C5    H10   S    
C6    O11   A    
C2    N2    A    
C7    C9    S    
C14   C15   A    
C8    C9    D    
C16   H2    S    
N2    Zn1   S    
C4    O8    A    
C16   H14   S    
C10   C15   A    
O4    S2    D    
O8    Zn1   S    
C1    O7    A    
C15   C16   S    
O6    S2    S    
C16   C17   S    
C3    C5    S    
