data_str_m2_o1_o1_f0_pcu.sym.28
_audit_creation_date              2012-10-26T20:21:43-0400
_audit_creation_method            fapswitch 2.2
_symmetry_space_group_name_H-M    P1
_symmetry_Int_Tables_number       1
_space_group_crystal_system       triclinic
_cell_length_a                    16.770041
_cell_length_b                    13.748323
_cell_length_c                    9.70265
_cell_angle_alpha                 90.000064
_cell_angle_beta                  90.000038
_cell_angle_gamma                 89.999973
_cell_volume                      2237.04240563

loop_
_atom_site_label
_atom_site_type_symbol
_atom_type_description
_atom_site_fract_x
_atom_site_fract_y
_atom_site_fract_z
_atom_type_partial_charge
C1    C     C_R   0.119748 0.382679 0.500248 0.576163
C2    C     C_R   0.000535 0.587843 0.924519 0.278838
C3    C     C_R   0.999464 0.587843 0.075481 0.278840
C4    C     C_R   0.999464 0.412157 0.924519 0.278838
C5    C     C_R   0.500536 0.912157 0.075481 0.278839
C6    C     C_R   0.500536 0.087843 0.924519 0.278838
C7    C     C_R   0.499464 0.087843 0.075481 0.278840
C8    C     C_R   0.499464 0.912157 0.924519 0.278838
C9    C     C_R   0.781633 0.282474 0.373309 -0.100161
C10   C     C_R   0.219822 0.715811 0.623223 -0.102277
C11   C     C_R   0.218365 0.717528 0.373309 -0.100159
C12   C     C_R   0.880252 0.617321 0.500248 0.576168
C13   C     C_R   0.780180 0.284187 0.623223 -0.102260
C14   C     C_R   0.218365 0.282472 0.626690 -0.100155
C15   C     C_R   0.780180 0.715813 0.376777 -0.102250
C16   C     C_R   0.781633 0.717526 0.626690 -0.100145
C17   C     C_R   0.219821 0.284189 0.376777 -0.102250
C18   C     C_R   0.281633 0.782474 0.373309 -0.100161
C19   C     C_R   0.719822 0.215811 0.623223 -0.102277
C20   C     C_R   0.718365 0.217528 0.373309 -0.100159
C21   C     C_R   0.280180 0.784187 0.623223 -0.102260
C22   C     C_R   0.718365 0.782472 0.626690 -0.100155
C23   C     C_R   0.880252 0.382679 0.499752 0.576140
C24   C     C_R   0.280180 0.215813 0.376777 -0.102250
C25   C     C_R   0.281633 0.217526 0.626690 -0.100145
C26   C     C_R   0.719821 0.784189 0.376777 -0.102250
C27   C     C_R   0.187108 0.683910 0.498661 0.003089
C28   C     C_R   0.812892 0.316090 0.498661 0.003104
C29   C     C_R   0.812892 0.683910 0.501339 0.003122
C30   C     C_R   0.187107 0.316090 0.501339 0.003114
C31   C     C_R   0.687108 0.183910 0.498661 0.003089
C32   C     C_R   0.312892 0.816090 0.498661 0.003104
C33   C     C_R   0.312892 0.183910 0.501339 0.003122
C34   C     C_R   0.119748 0.617321 0.499752 0.576124
C35   C     C_R   0.687107 0.816090 0.501339 0.003114
C36   C     C_R   0.619748 0.882679 0.500248 0.576163
C37   C     C_R   0.380252 0.117321 0.500248 0.576168
C38   C     C_R   0.380252 0.882679 0.499752 0.576140
C39   C     C_R   0.619748 0.117321 0.499752 0.576124
C40   C     C_R   0.000535 0.412157 0.075481 0.278839
Cu1   Cu    Cu3+1 1.000000 0.500000 0.640660 1.142674
Cu2   Cu    Cu3+1 0.000000 0.500000 0.359340 1.142680
Cu3   Cu    Cu3+1 0.500000 0.000000 0.640660 1.142674
Cu4   Cu    Cu3+1 0.500000 0.000000 0.359340 1.142680
H1    H     H_    0.805650 0.306466 0.275413 0.182672
H2    H     H_    0.698994 0.188085 0.720769 0.199395
H3    H     H_    0.694347 0.193538 0.275413 0.182676
H4    H     H_    0.301009 0.811911 0.720770 0.199396
H5    H     H_    0.694348 0.806462 0.724586 0.182673
H6    H     H_    0.301010 0.188090 0.279230 0.199392
H7    H     H_    0.305650 0.193534 0.724586 0.182671
H8    H     H_    0.698993 0.811914 0.279230 0.199392
H9    H     H_    0.014692 0.211011 0.353590 0.352743
H10   H     H_    0.014763 0.788962 0.646393 0.352742
H11   H     H_    0.985313 0.788991 0.353588 0.352747
H12   H     H_    0.198994 0.688085 0.720769 0.199395
H13   H     H_    0.985282 0.211024 0.646402 0.352749
H14   H     H_    0.514692 0.711011 0.353590 0.352744
H15   H     H_    0.514763 0.288962 0.646393 0.352742
H16   H     H_    0.485313 0.288991 0.353588 0.352747
H17   H     H_    0.485282 0.711024 0.646402 0.352749
H18   H     H_    0.194347 0.693538 0.275413 0.182676
H19   H     H_    0.801009 0.311911 0.720770 0.199396
H20   H     H_    0.194348 0.306462 0.724586 0.182673
H21   H     H_    0.801010 0.688090 0.279230 0.199392
H22   H     H_    0.805650 0.693534 0.724586 0.182671
H23   H     H_    0.198993 0.311914 0.279230 0.199392
H24   H     H_    0.305650 0.806466 0.275413 0.182672
N1    N     N_R   0.000000 0.500000 0.852070 -0.325600
N2    N     N_R   1.000000 0.500000 0.147930 -0.325601
N3    N     N_R   0.500000 0.000000 0.852070 -0.325600
N4    N     N_R   0.500000 0.000000 0.147930 -0.325601
O1    O     O_R   0.090170 0.409820 0.618740 -0.459708
O2    O     O_R   0.409830 0.090180 0.381260 -0.456894
O3    O     O_R   0.409830 0.090180 0.618740 -0.459708
O4    O     O_R   0.590170 0.909820 0.381260 -0.456893
O5    O     O_R   0.409830 0.909820 0.381260 -0.459713
O6    O     O_R   0.590170 0.090180 0.618740 -0.456913
O7    O     O_R   0.590170 0.090180 0.381260 -0.459709
O8    O     O_R   0.409830 0.909820 0.618740 -0.456903
O9    O     O_2   0.948978 0.223733 0.108919 -0.200470
O10   O     O_2   0.091320 0.256194 0.132570 -0.280891
O11   O     O_3   0.999263 0.279311 0.334712 -0.494399
O12   O     O_R   0.909830 0.590180 0.381260 -0.456895
O13   O     O_2   0.948984 0.776271 0.891083 -0.200418
O14   O     O_2   0.091324 0.743800 0.867430 -0.280931
O15   O     O_3   0.999262 0.720689 0.665289 -0.494392
O16   O     O_2   0.051025 0.776265 0.108920 -0.200478
O17   O     O_2   0.908682 0.743808 0.132568 -0.280889
O18   O     O_3   0.000737 0.720689 0.334712 -0.494404
O19   O     O_2   0.051022 0.223732 0.891081 -0.200454
O20   O     O_2   0.908680 0.256195 0.867430 -0.280903
O21   O     O_3   0.000737 0.279311 0.665288 -0.494405
O22   O     O_2   0.448978 0.723733 0.108919 -0.200470
O23   O     O_R   0.909830 0.590180 0.618740 -0.459708
O24   O     O_2   0.591320 0.756194 0.132570 -0.280891
O25   O     O_3   0.499263 0.779311 0.334712 -0.494399
O26   O     O_2   0.448984 0.276271 0.891083 -0.200418
O27   O     O_2   0.591324 0.243800 0.867430 -0.280931
O28   O     O_3   0.499262 0.220689 0.665289 -0.494392
O29   O     O_2   0.551025 0.276265 0.108920 -0.200478
O30   O     O_2   0.408682 0.243808 0.132568 -0.280889
O31   O     O_3   0.500737 0.220689 0.334712 -0.494404
O32   O     O_2   0.551022 0.723732 0.891081 -0.200454
O33   O     O_2   0.408680 0.756195 0.867430 -0.280903
O34   O     O_R   0.090170 0.409820 0.381260 -0.456893
O35   O     O_3   0.500737 0.779311 0.665288 -0.494405
O36   O     O_R   0.909830 0.409820 0.381260 -0.459713
O37   O     O_R   0.090170 0.590180 0.618740 -0.456913
O38   O     O_R   0.090170 0.590180 0.381260 -0.459709
O39   O     O_R   0.909830 0.409820 0.618740 -0.456903
O40   O     O_R   0.590170 0.909820 0.618740 -0.459708
S1    S     S_3+6 0.009352 0.293910 0.164409 0.093338
S2    S     S_3+6 0.009354 0.706090 0.835592 0.093343
S3    S     S_3+6 0.990650 0.706090 0.164409 0.093334
S4    S     S_3+6 0.990648 0.293910 0.835591 0.093339
S5    S     S_3+6 0.509351 0.793910 0.164409 0.093338
S6    S     S_3+6 0.509354 0.206090 0.835592 0.093343
S7    S     S_3+6 0.490650 0.206090 0.164409 0.093334
S8    S     S_3+6 0.490648 0.793910 0.835591 0.093339

loop_
_geom_bond_atom_site_label_1
_geom_bond_atom_site_label_2
_ccdc_geom_bond_type
C10   C27   A    
C37   O2    A    
O17   S3    D    
C11   C18   A    
C9    H1    S    
H15   O28   S    
C12   C29   S    
Cu1   Cu2   S    
O11   S1    S    
C35   C36   S    
C11   H18   S    
C19   C31   A    
C19   H2    S    
Cu3   O6    S    
C22   C35   A    
C40   N2    A    
Cu4   O5    S    
H11   O18   S    
H10   O15   S    
O22   S5    D    
O33   S8    D    
C18   H24   S    
C15   H21   S    
Cu2   N2    S    
O19   S4    D    
C12   O12   A    
Cu4   O4    S    
O15   S2    S    
C36   O4    A    
C4    C40   A    
C36   O40   A    
C16   C22   A    
C12   O23   A    
O26   S6    D    
C32   C38   S    
H16   O31   S    
C10   H12   S    
C1    O34   A    
C21   H4    S    
C37   O3    A    
C10   C21   A    
H13   O21   S    
Cu3   O3    S    
C17   C30   A    
H14   O25   S    
C14   C30   A    
C4    N1    A    
C15   C29   A    
C27   C34   S    
C24   H6    S    
C6    N3    A    
C21   C32   A    
C17   H23   S    
C17   C24   A    
C13   C19   A    
O29   S7    D    
C39   O6    A    
C7    S7    S    
O24   S5    D    
C3    N2    A    
Cu2   O12   S    
C7    N4    A    
C15   C26   A    
Cu3   O8    S    
C23   C28   S    
C33   C37   S    
C5    S5    S    
O21   S4    S    
C39   O7    A    
Cu3   Cu4   S    
C25   H7    S    
C26   H8    S    
Cu2   O34   S    
C9    C20   A    
C40   S1    S    
C13   H19   S    
C11   C27   A    
C14   H20   S    
C13   C28   A    
O18   S3    S    
Cu4   O2    S    
O20   S4    D    
C16   H22   S    
C22   H5    S    
C34   O38   A    
O28   S6    S    
Cu3   O40   S    
C2    N1    A    
O35   S8    S    
C8    S8    S    
Cu1   N1    S    
O13   S2    D    
C8    N3    A    
Cu3   N3    S    
C4    S4    S    
Cu4   O7    S    
O31   S7    S    
O10   S1    D    
C5    C8    A    
C6    C7    A    
C38   O5    A    
C5    N4    A    
C23   O39   A    
C24   C33   A    
H9    O11   S    
O14   S2    D    
C1    O1    A    
O16   S3    D    
C2    C3    A    
Cu2   O38   S    
C3    S3    S    
O27   S6    D    
C2    S2    S    
Cu1   O23   S    
C38   O8    A    
C23   O36   A    
C1    C30   S    
C31   C39   S    
Cu4   N4    S    
C14   C25   A    
O25   S5    S    
H17   O35   S    
C20   H3    S    
Cu1   O1    S    
C26   C35   A    
C18   C32   A    
C16   C29   A    
Cu1   O39   S    
O9    S1    D    
C34   O37   A    
Cu1   O37   S    
Cu2   O36   S    
C6    S6    S    
O30   S7    D    
C9    C28   A    
C25   C33   A    
O32   S8    D    
C20   C31   A    
