data_str_m3_o1_o14_f0_pcu.sym.58
_audit_creation_date              2012-12-10T18:45:09-0500
_audit_creation_method            fapswitch 2.2
_symmetry_space_group_name_H-M    P1
_symmetry_Int_Tables_number       1
_space_group_crystal_system       triclinic
_cell_length_a                    10.721604
_cell_length_b                    9.807349
_cell_length_c                    10.724833
_cell_angle_alpha                 90.002146
_cell_angle_beta                  90.028469
_cell_angle_gamma                 89.999793
_cell_volume                      1127.72154393

loop_
_atom_site_label
_atom_site_type_symbol
_atom_type_description
_atom_site_fract_x
_atom_site_fract_y
_atom_site_fract_z
_atom_type_partial_charge
C1    C     C_R   0.259774 0.499953 0.499814 0.868737
C2    C     C_R   0.488640 0.500851 0.739984 0.872794
C3    C     C_R   0.563159 0.755403 0.112972 -0.158080
C4    C     C_R   0.437082 0.755474 0.887071 -0.158023
C5    C     C_R   0.535121 0.878672 0.054588 -0.196830
C6    C     C_R   0.465214 0.878710 0.945477 -0.196847
C7    C     C_R   0.477696 0.629976 0.938915 0.098427
C8    C     C_R   0.522450 0.629951 0.061104 0.098393
C9    C     C_R   0.521916 0.504222 0.126445 -0.130117
C10   C     C_R   0.478122 0.504246 0.873561 -0.130117
C11   C     C_R   0.508513 0.380611 0.063193 -0.217405
C12   C     C_R   0.740226 0.499953 0.500189 0.868720
C13   C     C_R   0.491432 0.380621 0.936803 -0.217428
C14   C     C_R   0.063844 0.375514 0.499908 -0.195140
C15   C     C_R   0.936156 0.375514 0.500285 -0.195094
C16   C     C_R   0.872632 0.499942 0.500171 -0.008966
C17   C     C_R   0.127367 0.499943 0.499840 -0.008998
C18   C     C_3   0.714513 0.900891 0.741339 0.089113
C19   C     C_3   0.848526 0.954395 0.743212 -0.372901
C20   C     C_3   0.884381 0.006169 0.872479 -0.957774
C21   C     C_3   0.285660 0.900804 0.258569 0.089151
C22   C     C_3   0.151658 0.954325 0.256489 -0.372956
C23   C     C_R   0.936173 0.624344 0.499890 -0.208539
C24   C     C_3   0.115979 0.006003 0.127147 -0.957773
C25   C     C_R   0.063825 0.624344 0.499949 -0.208545
C26   C     C_R   0.591577 0.072502 0.560019 -0.234207
C27   C     C_R   0.408426 0.072498 0.439977 -0.234140
C28   C     C_R   0.590311 0.927216 0.563758 0.461225
C29   C     C_R   0.409694 0.927215 0.436238 0.461220
C30   C     C_R   0.511373 0.500844 0.260019 0.872774
H1    H     H_    0.510797 0.283376 0.111181 0.165309
H2    H     H_    0.112184 0.721328 0.500124 0.187202
H3    H     H_    0.665280 0.129364 0.604938 0.157899
H4    H     H_    0.334725 0.129350 0.395046 0.157905
H5    H     H_    0.708487 0.812667 0.806070 0.188639
H6    H     H_    0.649161 0.979408 0.778522 0.117553
H7    H     H_    0.913315 0.871100 0.715844 0.229335
H8    H     H_    0.858840 0.038776 0.674921 0.211865
H9    H     H_    0.822170 0.091286 0.900830 0.266497
H10   H     H_    0.981981 0.043969 0.870793 0.271406
H11   H     H_    0.877366 0.922561 0.942024 0.268636
H12   H     H_    0.489065 0.283388 0.888808 0.165303
H13   H     H_    0.291765 0.812527 0.193900 0.188649
H14   H     H_    0.351062 0.979293 0.221427 0.117585
H15   H     H_    0.086825 0.871063 0.283821 0.229309
H16   H     H_    0.141266 0.038763 0.324714 0.211922
H17   H     H_    0.178248 0.091071 0.098817 0.266494
H18   H     H_    0.018391 0.043845 0.128691 0.271411
H19   H     H_    0.123052 0.922335 0.057666 0.268649
H20   H     H_    0.618246 0.759827 0.197311 0.158359
H21   H     H_    0.381984 0.759965 0.802744 0.158387
H22   H     H_    0.563785 0.974151 0.096392 0.136448
H23   H     H_    0.436614 0.974220 0.903695 0.136419
H24   H     H_    0.112292 0.278529 0.499767 0.151824
H25   H     H_    0.887710 0.278529 0.500570 0.151785
H26   H     H_    0.887812 0.721328 0.499571 0.187121
N1    N     N_R   0.500000 0.857200 0.500000 -0.149962
N2    N     N_R   0.500000 0.142810 0.500000 -0.107881
O1    O     O_R   0.316770 0.614620 0.499990 -0.578612
O2    O     O_3   0.315081 0.853042 0.379656 -0.621451
O3    O     O_R   0.683230 0.614620 0.500010 -0.578600
O4    O     O_R   0.316800 0.385290 0.500000 -0.633877
O5    O     O_R   0.683200 0.385290 0.500000 -0.633882
O6    O     O_R   0.500010 0.614690 0.316770 -0.613055
O7    O     O_R   0.499990 0.614690 0.683230 -0.613039
O8    O     O_R   0.500040 0.385360 0.316770 -0.617158
O9    O     O_R   0.499960 0.385360 0.683230 -0.617161
O10   O     O_3   0.684929 0.853031 0.620321 -0.621386
Zn1   Zn    Zn3+2 0.500000 0.653120 0.500000 1.004102
Zn2   Zn    Zn3+2 0.500000 0.346880 0.500000 0.939373

loop_
_geom_bond_atom_site_label_1
_geom_bond_atom_site_label_2
_ccdc_geom_bond_type
C7    C10   A    
C29   O2    S    
C5    H22   S    
C19   H8    S    
C30   O6    A    
C27   C29   A    
C21   H14   S    
C9    C11   A    
C18   H5    S    
C26   H3    S    
C26   C28   A    
C19   C20   S    
O5    Zn2   S    
C2    O7    A    
C17   C25   A    
C1    O4    A    
O9    Zn2   S    
C25   H2    S    
C23   C25   A    
C20   H11   S    
C11   H1    S    
C7    C8    A    
C30   O8    A    
O6    Zn1   S    
C12   O3    A    
C26   N2    A    
C14   C17   A    
C23   H26   S    
O8    Zn2   S    
C18   H6    S    
C9    C30   S    
O1    Zn1   S    
C4    C7    A    
O7    Zn1   S    
C21   C22   S    
C13   H12   S    
C22   H16   S    
C3    H20   S    
C29   N1    A    
C3    C8    A    
C16   C23   A    
C1    O1    A    
C27   H4    S    
N1    Zn1   S    
C5    C6    A    
C20   H10   S    
C22   C24   S    
C19   H7    S    
C4    H21   S    
C18   O10   S    
C15   C16   A    
C24   H18   S    
C3    C5    A    
C11   C13   A    
C22   H15   S    
N2    Zn2   S    
O4    Zn2   S    
C21   O2    S    
C4    C6    A    
C2    O9    A    
O3    Zn1   S    
C24   H19   S    
C12   O5    A    
C20   H9    S    
C14   C15   A    
C18   C19   S    
C6    H23   S    
C14   H24   S    
C28   N1    A    
C24   H17   S    
C1    C17   S    
C10   C13   A    
C2    C10   S    
C21   H13   S    
C12   C16   S    
C8    C9    A    
C28   O10   S    
C27   N2    A    
C15   H25   S    
