data_str_m4_o19_o22_f0_acs.sym.113
_audit_creation_date              2012-12-11T14:38:08-0500
_audit_creation_method            fapswitch 2.2
_symmetry_space_group_name_H-M    P1
_symmetry_Int_Tables_number       1
_space_group_crystal_system       triclinic
_cell_length_a                    19.82248
_cell_length_b                    11.121825
_cell_length_c                    19.68207
_cell_angle_alpha                 90.014476
_cell_angle_beta                  95.862958
_cell_angle_gamma                 90.178361
_cell_volume                      4316.43209595

loop_
_atom_site_label
_atom_site_type_symbol
_atom_type_description
_atom_site_fract_x
_atom_site_fract_y
_atom_site_fract_z
_atom_type_partial_charge
C1    C     C_R   0.708917 0.992938 0.366263 0.548578
C2    C     C_R   0.278239 0.960477 0.638111 0.546421
C3    C     C_R   0.208917 0.492937 0.366263 0.548579
C4    C     C_R   0.778239 0.460477 0.638111 0.546414
C5    C     C_3   0.681437 0.458938 0.460498 -0.095649
C6    C     C_3   0.315579 0.461182 0.539552 -0.098902
C7    C     C_3   0.181437 0.958939 0.460498 -0.095650
C8    C     C_3   0.815578 0.961192 0.539552 -0.098900
C9    C     C_3   0.824778 0.493743 0.528365 -0.220924
C10   C     C_3   0.169653 0.508970 0.481451 -0.245521
C11   C     C_3   0.324778 0.993744 0.528365 -0.220924
C12   C     C_3   0.669652 0.008970 0.481451 -0.245521
C13   C     C_3   0.763294 0.302409 0.552520 -0.261841
C14   C     C_3   0.222134 0.319137 0.445255 -0.238432
C15   C     C_3   0.263295 0.802410 0.552520 -0.261841
C16   C     C_3   0.722134 0.819139 0.445255 -0.238432
C17   C     C_3   0.765882 0.436867 0.565630 0.055140
C18   C     C_3   0.224418 0.456734 0.437738 0.049583
C19   C     C_3   0.265882 0.936868 0.565630 0.055138
C20   C     C_3   0.724417 0.956735 0.437737 0.049581
C21   C     C_3   0.746436 0.400948 0.434505 0.053902
C22   C     C_3   0.251761 0.401439 0.566179 0.056521
C23   C     C_3   0.246436 0.900949 0.434505 0.053902
C24   C     C_3   0.751761 0.901442 0.566179 0.056522
C25   C     C_3   0.806312 0.490037 0.450103 -0.267688
C26   C     C_3   0.191866 0.490757 0.557923 -0.252843
C27   C     C_3   0.306312 0.990038 0.450103 -0.267688
C28   C     C_3   0.691864 0.990756 0.557924 -0.252843
C29   C     C_3   0.765741 0.285932 0.476351 -0.223757
C30   C     C_3   0.230298 0.290796 0.521094 -0.236982
C31   C     C_3   0.265740 0.785934 0.476351 -0.223757
C32   C     C_3   0.730300 0.790798 0.521095 -0.236982
C33   C     C_3   0.491373 0.307821 0.962051 -0.229951
C34   C     C_3   0.509264 0.307871 0.037902 -0.229929
C35   C     C_3   0.991380 0.807820 0.962050 -0.229952
C36   C     C_3   0.009270 0.807871 0.037901 -0.229930
C37   C     C_3   0.422755 0.117145 0.984753 -0.123331
C38   C     C_3   0.576794 0.116626 0.015275 -0.123337
C39   C     C_3   0.922758 0.617151 0.984752 -0.123333
C40   C     C_3   0.076796 0.616621 0.015276 -0.123330
C41   C     C_3   0.538179 0.103429 0.942527 -0.206082
C42   C     C_3   0.461281 0.103941 0.057525 -0.206346
C43   C     C_3   0.038182 0.603427 0.942527 -0.206082
C44   C     C_3   0.961283 0.603944 0.057523 -0.206351
C45   C     C_R   0.534395 0.179275 0.337566 0.530432
C46   C     C_R   0.465040 0.179562 0.662016 0.532782
C47   C     C_R   0.034395 0.679275 0.337566 0.530433
C48   C     C_R   0.965039 0.679562 0.662015 0.532780
C49   C     C_3   0.471978 0.177376 0.936876 0.044501
C50   C     C_3   0.527909 0.177348 0.063126 0.044154
C51   C     C_3   0.971983 0.677376 0.936875 0.044501
C52   C     C_3   0.027911 0.677347 0.063126 0.044153
C53   C     C_1   0.762584 0.427700 0.904486 -0.021257
C54   C     C_1   0.237373 0.427753 0.095484 -0.022521
C55   C     C_1   0.262592 0.927721 0.904492 -0.021271
C56   C     C_1   0.737374 0.927751 0.095484 -0.022513
C57   C     C_1   0.748260 0.402854 0.034323 -0.073574
C58   C     C_1   0.251875 0.403079 0.965681 -0.073294
C59   C     C_1   0.248262 0.902861 0.034325 -0.073570
C60   C     C_1   0.751877 0.903075 0.965682 -0.073303
C61   C     C_1   0.754576 0.414955 0.963878 -0.057568
C62   C     C_1   0.245453 0.415119 0.036106 -0.057818
C63   C     C_1   0.254581 0.914969 0.963882 -0.057571
C64   C     C_1   0.745454 0.915115 0.036107 -0.057823
C65   C     C_1   0.743481 0.389118 0.094385 -0.032336
C66   C     C_1   0.256648 0.389364 0.905619 -0.032321
C67   C     C_1   0.243482 0.889121 0.094387 -0.032339
C68   C     C_1   0.756649 0.889362 0.905620 -0.032319
C69   C     C_R   0.738656 0.362740 0.361509 0.527911
C70   C     C_R   0.262017 0.359613 0.637804 0.534326
C71   C     C_R   0.238656 0.862740 0.361509 0.527911
C72   C     C_R   0.762017 0.859614 0.637804 0.534326
C73   C     C_R   0.721788 0.954828 0.163188 0.540296
C74   C     C_R   0.278214 0.954919 0.836798 0.533225
C75   C     C_R   0.221788 0.454828 0.163188 0.540291
C76   C     C_R   0.778203 0.454890 0.836789 0.533196
C77   C     C_R   0.556935 0.182275 0.135705 0.538130
C78   C     C_R   0.442960 0.182198 0.864289 0.537231
C79   C     C_R   0.056937 0.682274 0.135705 0.538132
C80   C     C_R   0.942963 0.682198 0.864289 0.537240
C81   C     C_R   0.735805 0.356841 0.163513 0.539115
C82   C     C_R   0.264213 0.357072 0.836479 0.538708
C83   C     C_R   0.235806 0.856841 0.163513 0.539116
C84   C     C_R   0.764213 0.857072 0.836479 0.538709
C85   C     C_1   0.486612 0.168658 0.594661 -0.043895
C86   C     C_1   0.511609 0.167988 0.404407 -0.043964
C87   C     C_1   0.986610 0.668661 0.594660 -0.043903
C88   C     C_1   0.011608 0.667990 0.404406 -0.043964
C89   C     C_1   0.501989 0.162032 0.463960 -0.080687
C90   C     C_1   0.495531 0.162391 0.534942 -0.079814
C91   C     C_1   0.001988 0.662035 0.463959 -0.080685
C92   C     C_1   0.995529 0.662395 0.534941 -0.079813
C93   C     C_3   0.696225 0.487409 0.536897 -0.210673
C94   C     C_3   0.298564 0.492222 0.463988 -0.203843
C95   C     C_3   0.196225 0.987408 0.536897 -0.210673
C96   C     C_3   0.798563 0.992223 0.463987 -0.203839
Cr1   Cr    Cr6+3 0.765780 0.160710 0.267420 1.004653
Cr2   Cr    Cr6+3 0.234220 0.160710 0.732580 1.004532
Cr3   Cr    Cr6+3 0.265780 0.660710 0.267420 1.004652
Cr4   Cr    Cr6+3 0.734220 0.660710 0.732580 1.004532
Cr5   Cr    Cr6+3 0.612200 0.009560 0.248850 1.006593
Cr6   Cr    Cr6+3 0.387800 0.009560 0.751150 1.008719
Cr7   Cr    Cr6+3 0.112200 0.509560 0.248850 1.006592
Cr8   Cr    Cr6+3 0.887800 0.509560 0.751150 1.008724
Cr9   Cr    Cr6+3 0.616030 0.323720 0.248510 0.994587
Cr10  Cr    Cr6+3 0.383970 0.323720 0.751490 0.997328
Cr11  Cr    Cr6+3 0.116030 0.823720 0.248510 0.994587
Cr12  Cr    Cr6+3 0.883970 0.823720 0.751490 0.997334
H1    H     H_    0.693759 0.582632 0.544994 0.120499
H2    H     H_    0.311907 0.584214 0.454589 0.112278
H3    H     H_    0.193756 0.082632 0.544995 0.120500
H4    H     H_    0.811908 0.084213 0.454584 0.112285
H5    H     H_    0.819390 0.265201 0.469027 0.135011
H6    H     H_    0.179287 0.262637 0.534028 0.135342
H7    H     H_    0.319390 0.765202 0.469027 0.135011
H8    H     H_    0.679290 0.762637 0.534029 0.135342
H9    H     H_    0.871677 0.439847 0.540871 0.142014
H10   H     H_    0.121460 0.458338 0.468501 0.136277
H11   H     H_    0.371677 0.939849 0.540871 0.142014
H12   H     H_    0.621459 0.958340 0.468500 0.136277
H13   H     H_    0.851449 0.461468 0.424933 0.135015
H14   H     H_    0.147797 0.456529 0.583120 0.137170
H15   H     H_    0.351449 0.961469 0.424933 0.135014
H16   H     H_    0.647796 0.956523 0.583119 0.137171
H17   H     H_    0.450372 0.374411 0.948811 0.131353
H18   H     H_    0.550621 0.374239 0.051170 0.131289
H19   H     H_    0.950379 0.874411 0.948810 0.131357
H20   H     H_    0.050628 0.874237 0.051169 0.131286
H21   H     H_    0.535987 0.340604 0.937111 0.148155
H22   H     H_    0.464816 0.341052 0.062805 0.148480
H23   H     H_    0.035995 0.840600 0.937110 0.148159
H24   H     H_    0.964824 0.841056 0.062803 0.148478
H25   H     H_    0.431700 0.133898 0.099162 0.145188
H26   H     H_    0.567940 0.132862 0.900858 0.144906
H27   H     H_    0.931699 0.633900 0.099159 0.145195
H28   H     H_    0.067943 0.632860 0.900858 0.144900
H29   H     H_    0.526309 0.006633 0.932793 0.119775
H30   H     H_    0.472565 0.007103 0.067340 0.119795
H31   H     H_    0.026310 0.506632 0.932792 0.119776
H32   H     H_    0.972565 0.507105 0.067338 0.119794
H33   H     H_    0.589307 0.024462 0.034771 0.141631
H34   H     H_    0.409767 0.024981 0.965286 0.141782
H35   H     H_    0.089305 0.524455 0.034771 0.141629
H36   H     H_    0.909765 0.524989 0.965284 0.141795
H37   H     H_    0.656529 0.453383 0.568281 0.121042
H38   H     H_    0.332599 0.445699 0.430890 0.134857
H39   H     H_    0.156529 0.953379 0.568281 0.121041
H40   H     H_    0.832596 0.945692 0.430891 0.134855
H41   H     H_    0.672551 0.545187 0.432177 0.131659
H42   H     H_    0.325113 0.546259 0.568781 0.133549
H43   H     H_    0.172552 0.045189 0.432177 0.131659
H44   H     H_    0.825106 0.046274 0.568778 0.133548
H45   H     H_    0.339273 0.085093 0.546419 0.101027
H46   H     H_    0.654156 0.102499 0.470491 0.086952
H47   H     H_    0.839273 0.585092 0.546419 0.101032
H48   H     H_    0.154156 0.602498 0.470490 0.086951
H49   H     H_    0.292088 0.080686 0.430466 0.104239
H50   H     H_    0.707195 0.076225 0.583363 0.104072
H51   H     H_    0.792087 0.580686 0.430467 0.104240
H52   H     H_    0.207199 0.576226 0.583362 0.104074
H53   H     H_    0.806572 0.254566 0.580980 0.125096
H54   H     H_    0.173282 0.279623 0.422454 0.136864
H55   H     H_    0.306573 0.754565 0.580980 0.125098
H56   H     H_    0.673281 0.779624 0.422455 0.136863
H57   H     H_    0.715391 0.265479 0.568532 0.109198
H58   H     H_    0.263143 0.276735 0.419123 0.117775
H59   H     H_    0.215392 0.765479 0.568532 0.109199
H60   H     H_    0.763142 0.776736 0.419122 0.117777
H61   H     H_    0.732668 0.212947 0.457206 0.114467
H62   H     H_    0.267939 0.219835 0.530845 0.108797
H63   H     H_    0.232667 0.712948 0.457206 0.114468
H64   H     H_    0.767943 0.719839 0.530844 0.108798
O1    O     O_R   0.783100 0.287550 0.345460 -0.533799
O2    O     O_R   0.216900 0.287550 0.654540 -0.532167
O3    O     O_R   0.283100 0.787550 0.345460 -0.533799
O4    O     O_R   0.716900 0.787550 0.654540 -0.532168
O5    O     O_R   0.554710 0.081900 0.170950 -0.507976
O6    O     O_R   0.445290 0.081900 0.829050 -0.508144
O7    O     O_R   0.054710 0.581900 0.170950 -0.507975
O8    O     O_R   0.945290 0.581900 0.829050 -0.508138
O9    O     O_R   0.545650 0.284910 0.163740 -0.522543
O10   O     O_R   0.454350 0.284910 0.836260 -0.523794
O11   O     O_R   0.045650 0.784910 0.163740 -0.522542
O12   O     O_R   0.954350 0.784910 0.836260 -0.523795
O13   O     O_R   0.677950 0.374280 0.185410 -0.506751
O14   O     O_R   0.322050 0.374280 0.814590 -0.507957
O15   O     O_R   0.177950 0.874280 0.185410 -0.506753
O16   O     O_R   0.822050 0.874280 0.814590 -0.507956
O17   O     O_3   0.664670 0.164660 0.254930 -0.287259
O18   O     O_3   0.335330 0.164660 0.745070 -0.275427
O19   O     O_3   0.164670 0.664660 0.254930 -0.287259
O20   O     O_3   0.835330 0.664660 0.745070 -0.275415
O21   O     O_R   0.760020 0.037400 0.337700 -0.514906
O22   O     O_R   0.239980 0.037400 0.662300 -0.518303
O23   O     O_R   0.260020 0.537400 0.337700 -0.514905
O24   O     O_R   0.739980 0.537400 0.662300 -0.518308
O25   O     O_R   0.666600 0.921990 0.332020 -0.522475
O26   O     O_R   0.333400 0.921990 0.667980 -0.524732
O27   O     O_R   0.166600 0.421990 0.332020 -0.522476
O28   O     O_R   0.833400 0.421990 0.667980 -0.524737
O29   O     O_R   0.557260 0.082670 0.312540 -0.502383
O30   O     O_R   0.442740 0.082670 0.687460 -0.492814
O31   O     O_R   0.057260 0.582670 0.312540 -0.502382
O32   O     O_R   0.942740 0.582670 0.687460 -0.492813
O33   O     O_R   0.548410 0.285740 0.316480 -0.520875
O34   O     O_R   0.451590 0.285740 0.683520 -0.521459
O35   O     O_R   0.048410 0.785740 0.316480 -0.520875
O36   O     O_R   0.951590 0.785740 0.683520 -0.521458
O37   O     O_R   0.680500 0.375040 0.327000 -0.509993
O38   O     O_R   0.319500 0.375040 0.673000 -0.510520
O39   O     O_R   0.180500 0.875040 0.327000 -0.509993
O40   O     O_R   0.819500 0.875040 0.673000 -0.510519
O41   O     O_R   0.780350 0.286720 0.192720 -0.505824
O42   O     O_R   0.219650 0.286720 0.807280 -0.506242
O43   O     O_R   0.280350 0.786720 0.192720 -0.505824
O44   O     O_R   0.719650 0.786720 0.807280 -0.506240
O45   O     O_R   0.757470 0.036630 0.196110 -0.492969
O46   O     O_R   0.242530 0.036630 0.803890 -0.496993
O47   O     O_R   0.257470 0.536630 0.196110 -0.492970
O48   O     O_R   0.742530 0.536630 0.803890 -0.496984
O49   O     O_R   0.663840 0.921160 0.179280 -0.513115
O50   O     O_R   0.336160 0.921160 0.820720 -0.515719
O51   O     O_R   0.163840 0.421160 0.179280 -0.513115
O52   O     O_R   0.836160 0.421160 0.820720 -0.515709
C97   C     C_3   0.354974 0.186157 0.984644 -0.277054
C98   C     C_3   0.314040 0.157816 0.044607 -0.427303
H65   H     H_    0.327934 0.069393 0.066871 0.161431
H66   H     H_    0.325328 0.224958 0.085987 0.144104
H67   H     H_    0.258837 0.159911 0.027925 0.165824
H68   H     H_    0.364398 0.283771 0.985965 0.158877
H69   H     H_    0.323385 0.165616 0.936102 0.148337
C99   C     C_3   0.644915 0.185290 0.015331 -0.277064
C100  C     C_3   0.685674 0.156641 0.955355 -0.427868
H70   H     H_    0.671522 0.067957 0.933318 0.161446
H71   H     H_    0.674512 0.223460 0.913866 0.143294
H72   H     H_    0.740896 0.159150 0.971955 0.165857
H73   H     H_    0.635936 0.282899 0.013946 0.159062
H74   H     H_    0.676426 0.164803 0.063867 0.148033
C101  C     C_3   0.854981 0.686174 0.984647 -0.277088
C102  C     C_3   0.814039 0.657809 0.044594 -0.427334
H75   H     H_    0.827934 0.569385 0.066856 0.161438
H76   H     H_    0.825311 0.724937 0.085979 0.144112
H77   H     H_    0.758840 0.659899 0.027896 0.165835
H78   H     H_    0.864410 0.783782 0.985988 0.158888
H79   H     H_    0.823399 0.665666 0.936100 0.148360
C103  C     C_3   0.144921 0.685276 0.015337 -0.277059
C104  C     C_3   0.185675 0.656655 0.955353 -0.427859
H80   H     H_    0.171528 0.567975 0.933308 0.161442
H81   H     H_    0.174506 0.723488 0.913872 0.143303
H82   H     H_    0.240899 0.659168 0.971947 0.165853
H83   H     H_    0.135948 0.782886 0.013971 0.159058
H84   H     H_    0.176434 0.664762 0.063868 0.148031
C105  C     C_3   0.616039 0.382051 0.451437 -0.250470
C106  C     C_3   0.554199 0.461563 0.431162 -0.416635
H85   H     H_    0.551823 0.535321 0.468876 0.122276
H86   H     H_    0.557708 0.501597 0.379956 0.173440
H87   H     H_    0.506566 0.408891 0.429788 0.157250
H88   H     H_    0.621381 0.309687 0.415055 0.191630
H89   H     H_    0.606875 0.331076 0.498131 0.128019
C107  C     C_3   0.381258 0.384649 0.546662 -0.257603
C108  C     C_3   0.443633 0.464360 0.564913 -0.421327
H90   H     H_    0.445255 0.537476 0.526697 0.125458
H91   H     H_    0.441659 0.505005 0.616212 0.171320
H92   H     H_    0.490889 0.411308 0.565351 0.155728
H93   H     H_    0.377831 0.312852 0.583927 0.193118
H94   H     H_    0.388831 0.332847 0.499826 0.128111
C109  C     C_3   0.116039 0.882054 0.451435 -0.250470
C110  C     C_3   0.054200 0.961567 0.431160 -0.416629
H95   H     H_    0.051823 0.035324 0.468875 0.122277
H96   H     H_    0.057711 0.001603 0.379955 0.173436
H97   H     H_    0.006566 0.908896 0.429783 0.157251
H98   H     H_    0.121381 0.809690 0.415054 0.191631
H99   H     H_    0.106874 0.831080 0.498129 0.128022
C111  C     C_3   0.881262 0.884673 0.546667 -0.257640
C112  C     C_3   0.943628 0.964391 0.564925 -0.421349
H100  H     H_    0.945267 0.037486 0.526701 0.125461
H101  H     H_    0.941635 0.005064 0.616212 0.171303
H102  H     H_    0.990881 0.911333 0.565392 0.155751
H103  H     H_    0.877837 0.812878 0.583927 0.193136
H104  H     H_    0.888847 0.832881 0.499834 0.128119

loop_
_geom_bond_atom_site_label_1
_geom_bond_atom_site_label_2
_ccdc_geom_bond_type
C94   H38   S    
C104  H81   S    
C39   C51   S    
C58   C62   S    
C8    C24   S    
Cr4   O48   S    
Cr3   O23   S    
C16   C32   S    
C42   H30   S    
C9    H9    S    
C14   C18   S    
C1    O21   A    
C35   C36   S    
C8    C96   S    
C12   H46   S    
Cr2   O18   S    
C83   O15   A    
C39   C101  S    
Cr7   O19   S    
C9    C25   S    
C103  H84   S    
C16   H56   S    
C67   C83   S    
C96   H4    S    
C11   C19   S    
Cr3   O43   S    
C97   H69   S    
C21   C25   S    
C48   O36   A    
C82   O14   A    
C42   H25   S    
C111  H104  S    
Cr8   O32   S    
C13   C29   S    
C74   O50   A    
C8    H44   S    
C10   C18   S    
C75   O47   A    
C72   O40   A    
Cr5   O17   S    
C74   O46   A    
C36   H24   S    
C108  H90   S    
Cr2   O2    S    
Cr5   O25   S    
Cr7   O7    S    
Cr11  O39   S    
C5    C105  S    
C6    C22   S    
Cr11  O15   S    
Cr9   O37   S    
C49   C78   S    
Cr2   O22   S    
C3    C18   S    
C6    C107  S    
C111  C112  S    
C26   H52   S    
Cr1   O21   S    
C37   C42   S    
C51   C80   S    
Cr10  O10   S    
C106  H86   S    
C81   O13   A    
Cr9   O9    S    
C59   C67   T    
C33   H17   S    
C12   H12   S    
C55   C74   S    
C13   H57   S    
C105  H88   S    
C41   C49   S    
C40   C43   S    
C81   O41   A    
C101  C102  S    
C71   O3    A    
C6    C94   S    
Cr8   O20   S    
C55   C63   T    
Cr11  O11   S    
C25   H51   S    
C3    O27   A    
C110  H97   S    
C93   H37   S    
C101  H78   S    
C73   O49   A    
C23   C27   S    
C14   H58   S    
C52   C79   S    
C93   H1    S    
C100  H70   S    
Cr11  O35   S    
C36   C52   S    
Cr12  O36   S    
C46   C85   S    
Cr7   O51   S    
C34   H18   S    
C10   C26   S    
C44   H27   S    
C37   C97   S    
C20   C96   S    
C46   O30   A    
C75   O51   A    
C44   H32   S    
C45   O29   A    
C78   O6    A    
C87   C92   T    
C99   H74   S    
C102  H76   S    
Cr8   O28   S    
C15   H59   S    
Cr4   O20   S    
C69   O1    A    
C14   C30   S    
C5    C93   S    
C46   O34   A    
C31   H7    S    
C41   H26   S    
Cr12  O40   S    
C58   C66   T    
C60   C64   S    
C97   C98   S    
Cr7   O31   S    
C103  H83   S    
Cr4   O24   S    
C96   H40   S    
C85   C90   T    
C40   C103  S    
C34   C50   S    
Cr1   O1    S    
C37   H34   S    
Cr12  O12   S    
C73   O45   A    
C111  H103  S    
C68   C84   S    
Cr9   O17   S    
C112  H102  S    
C95   H39   S    
Cr10  O14   S    
C38   C41   S    
C11   H11   S    
C82   O42   A    
C10   H48   S    
C76   O52   A    
C108  H91   S    
C27   H15   S    
C38   C99   S    
C54   C62   T    
C106  H87   S    
C40   C52   S    
C21   C29   S    
C15   C31   S    
C94   H2    S    
C102  H77   S    
C3    O23   A    
C21   C69   S    
C2    O22   A    
C23   C31   S    
C14   H54   S    
C15   C19   S    
C24   C32   S    
Cr4   O4    S    
C106  H85   S    
C10   H10   S    
C23   C71   S    
C66   C82   S    
C100  H71   S    
C109  H98   S    
C105  H89   S    
C65   C81   S    
C88   C91   T    
C11   C27   S    
C16   C20   S    
C57   C65   T    
C12   C20   S    
C22   C70   S    
C28   H50   S    
C33   C34   S    
C48   C87   S    
C47   O31   A    
Cr7   O27   S    
C32   H8    S    
C57   C61   S    
C70   O2    A    
C9    H47   S    
C37   C49   S    
Cr12  O20   S    
C42   C50   S    
C7    H43   S    
C4    C17   S    
C9    C17   S    
C33   H21   S    
C112  H100  S    
Cr3   O47   S    
C98   H66   S    
C25   H13   S    
Cr2   O46   S    
C35   C51   S    
C99   H73   S    
Cr6   O6    S    
C38   H33   S    
C30   H62   S    
C59   C63   S    
C84   O16   A    
C53   C76   S    
C17   C93   S    
Cr10  O18   S    
C107  H94   S    
C13   H53   S    
C89   C90   S    
C50   C77   S    
C35   H23   S    
C36   H20   S    
C19   C95   S    
C24   C72   S    
C12   C28   S    
C30   H6    S    
C104  H82   S    
Cr5   O49   S    
C4    O24   A    
C95   H3    S    
C29   H5    S    
C103  C104  S    
C109  H99   S    
C1    C20   S    
C45   O33   A    
C56   C73   S    
C22   C30   S    
C112  H101  S    
C2    C19   S    
C2    O26   A    
C41   H29   S    
C53   C61   T    
Cr12  O16   S    
C1    O25   A    
Cr8   O8    S    
C24   C28   S    
C80   O12   A    
C110  H96   S    
C107  C108  S    
C86   C89   T    
Cr10  O34   S    
C108  H92   S    
C83   O43   A    
C109  C110  S    
C28   H16   S    
Cr9   O33   S    
C39   C44   S    
C38   C50   S    
C32   H64   S    
C47   O35   A    
C43   H31   S    
C27   H49   S    
C98   H67   S    
C7    C95   S    
C48   O32   A    
Cr9   O13   S    
C97   H68   S    
C13   C17   S    
C101  H79   S    
C60   C68   T    
C29   H61   S    
C47   C88   S    
C35   H19   S    
Cr6   O26   S    
C45   C86   S    
C77   O9    A    
C80   O8    A    
Cr5   O29   S    
C7    C109  S    
Cr3   O19   S    
C44   C52   S    
C56   C64   T    
C105  C106  S    
C7    C23   S    
C31   H63   S    
C16   H60   S    
C18   C94   S    
C43   C51   S    
C5    H41   S    
Cr1   O17   S    
C102  H75   S    
Cr6   O18   S    
C79   O11   A    
C69   O37   A    
Cr1   O45   S    
C72   O4    A    
Cr2   O42   S    
C43   H28   S    
C100  H72   S    
C77   O5    A    
Cr3   O3    S    
Cr5   O5    S    
C11   H45   S    
C54   C75   S    
C6    H42   S    
C4    O28   A    
C79   O7    A    
C5    C21   S    
C39   H36   S    
C34   H22   S    
Cr6   O30   S    
Cr4   O44   S    
C98   H65   S    
C22   C26   S    
C40   H35   S    
Cr11  O19   S    
C76   O48   A    
C71   O39   A    
Cr1   O41   S    
C26   H14   S    
C70   O38   A    
C78   O10   A    
C107  H93   S    
Cr6   O50   S    
C33   C49   S    
Cr8   O52   S    
C15   H55   S    
C8    C111  S    
C91   C92   S    
C84   O44   A    
C104  H80   S    
C99   C100  S    
C110  H95   S    
Cr10  O38   S    
