data_str_m3_o10_o29_f0_pcu.sym.111
_audit_creation_date              2012-12-10T16:59:12-0500
_audit_creation_method            fapswitch 2.2
_symmetry_space_group_name_H-M    P1
_symmetry_Int_Tables_number       1
_space_group_crystal_system       triclinic
_cell_length_a                    7.740987
_cell_length_b                    8.557182
_cell_length_c                    27.713218
_cell_angle_alpha                 90.946526
_cell_angle_beta                  86.191351
_cell_angle_gamma                 93.677158
_cell_volume                      1827.78836812

loop_
_atom_site_label
_atom_site_type_symbol
_atom_type_description
_atom_site_fract_x
_atom_site_fract_y
_atom_site_fract_z
_atom_type_partial_charge
C1    C     C_R   0.545882 0.794828 0.498735 0.975875
C2    C     C_R   0.516574 0.644933 0.127787 -0.022088
C3    C     C_R   0.509782 0.498097 0.646432 -0.038517
C4    C     C_R   0.490218 0.501904 0.353568 -0.038515
C5    C     C_R   0.534990 0.643549 0.025508 0.047820
C6    C     C_R   0.465010 0.356454 0.974492 0.047820
C7    C     C_R   0.453859 0.358852 0.025775 0.047817
C8    C     C_R   0.546140 0.641151 0.974225 0.047818
C9    C     C_R   0.489707 0.502242 0.050922 0.072025
C10   C     C_R   0.510293 0.497761 0.949078 0.072025
C11   C     C_R   0.567169 0.783079 0.052569 -0.226403
C12   C     C_R   0.454118 0.205171 0.501265 0.975875
C13   C     C_R   0.432831 0.216923 0.947431 -0.226403
C14   C     C_R   0.558366 0.783280 0.102634 -0.140144
C15   C     C_R   0.441634 0.216722 0.897365 -0.140144
C16   C     C_R   0.502900 0.499736 0.593920 0.874116
C17   C     C_R   0.497099 0.500264 0.406079 0.874116
C18   C     C_R   0.592796 0.777664 0.946905 -0.226617
C19   C     C_R   0.407204 0.222338 0.053095 -0.226616
C20   C     C_2   0.570144 0.958290 0.498003 -0.371723
C21   C     C_2   0.429856 0.041710 0.501997 -0.371723
C22   C     C_R   0.566997 0.630748 0.821436 0.506450
C23   C     C_R   0.519294 0.495749 0.897803 -0.049581
C24   C     C_R   0.433002 0.369255 0.178564 0.506450
C25   C     C_R   0.488755 0.356490 0.821695 0.507081
C26   C     C_R   0.511246 0.643513 0.178305 0.507079
C27   C     C_R   0.362463 0.494494 0.726128 -0.099777
C28   C     C_R   0.637540 0.505535 0.273872 -0.099774
C29   C     C_R   0.355753 0.496812 0.676222 -0.204329
C30   C     C_R   0.644249 0.503216 0.323778 -0.204331
C31   C     C_R   0.670427 0.497272 0.667232 -0.210497
C32   C     C_R   0.329571 0.502702 0.332768 -0.210496
C33   C     C_R   0.676649 0.495523 0.717201 -0.093265
C34   C     C_R   0.480706 0.504254 0.102196 -0.049580
C35   C     C_R   0.323348 0.504452 0.282799 -0.093261
C36   C     C_R   0.522699 0.493965 0.746513 0.323136
C37   C     C_R   0.477301 0.506037 0.253487 0.323130
C38   C     C_R   0.563210 0.634586 0.871949 -0.021543
C39   C     C_R   0.436789 0.365417 0.128050 -0.021543
C40   C     C_R   0.600601 0.774112 0.896843 -0.141137
C41   C     C_R   0.399398 0.225891 0.103157 -0.141137
C42   C     C_R   0.483426 0.355069 0.872213 -0.022089
H1    H     H_    0.790993 0.498523 0.645004 0.159391
H2    H     H_    0.414464 0.107009 0.878418 0.194300
H3    H     H_    0.600039 0.895440 0.036501 0.140711
H4    H     H_    0.399961 0.104563 0.963499 0.140711
H5    H     H_    0.624859 0.890412 0.962757 0.141525
H6    H     H_    0.375140 0.109591 0.037243 0.141524
H7    H     H_    0.800538 0.495304 0.733199 0.134864
H8    H     H_    0.199457 0.504650 0.266800 0.134867
H9    H     H_    0.769633 0.502937 0.338944 0.161187
H10   H     H_    0.230372 0.497112 0.661056 0.161188
H11   H     H_    0.702606 0.009421 0.494190 0.180846
H12   H     H_    0.209002 0.501429 0.354995 0.159387
H13   H     H_    0.297393 0.990579 0.505810 0.180846
H14   H     H_    0.014080 0.383216 0.463422 0.191381
H15   H     H_    0.985920 0.616783 0.536578 0.191381
H16   H     H_    0.635975 0.882059 0.877691 0.193324
H17   H     H_    0.364024 0.117944 0.122309 0.193324
H18   H     H_    0.756480 0.506417 0.250943 0.136187
H19   H     H_    0.243525 0.493634 0.749058 0.136185
H20   H     H_    0.585537 0.892994 0.121581 0.194301
N1    N     N_R   0.528447 0.493324 0.797679 -0.361750
N2    N     N_R   0.471552 0.506679 0.202320 -0.361748
N3    N     N_2   0.950320 0.457960 0.486880 -0.175755
N4    N     N_2   0.049680 0.542040 0.513120 -0.175755
O1    O     O_R   0.389250 0.738570 0.503220 -0.611088
O2    O     O_2   0.393404 0.236731 0.203822 -0.532406
O3    O     O_2   0.546145 0.777249 0.203340 -0.530952
O4    O     O_2   0.453855 0.222754 0.796660 -0.530951
O5    O     O_R   0.610750 0.261430 0.496780 -0.611088
O6    O     O_R   0.678390 0.711630 0.494810 -0.629376
O7    O     O_R   0.321610 0.288370 0.505190 -0.629376
O8    O     O_R   0.355440 0.513440 0.575450 -0.621167
O9    O     O_R   0.644560 0.486560 0.424550 -0.621166
O10   O     O_R   0.644590 0.486500 0.567040 -0.630296
O11   O     O_R   0.355410 0.513500 0.432960 -0.630295
O12   O     O_2   0.606596 0.763271 0.796178 -0.532404
Zn1   Zn    Zn3+2 0.306940 0.517990 0.505620 0.950372
Zn2   Zn    Zn3+2 0.693060 0.482010 0.494380 0.950372

loop_
_geom_bond_atom_site_label_1
_geom_bond_atom_site_label_2
_ccdc_geom_bond_type
C30   H9    S    
C27   C29   A    
H15   N4    S    
C18   H5    S    
C33   C36   A    
C39   C41   A    
N4    Zn1   S    
C23   C42   A    
C31   H1    S    
C16   O8    A    
C35   C37   A    
C15   H2    S    
C5    C11   A    
C13   H4    S    
C11   C14   A    
C33   H7    S    
H14   N3    S    
C22   C38   A    
C24   C39   A    
C25   N1    A    
C3    C29   A    
C26   N2    A    
C18   C40   A    
C27   H19   S    
C22   N1    A    
C31   C33   A    
C36   N1    S    
O9    Zn2   S    
C2    C34   A    
C28   H18   S    
C24   N2    A    
N3    Zn2   S    
C12   O7    A    
C32   H12   S    
O5    Zn2   S    
O11   Zn1   S    
C1    O6    A    
C40   H16   S    
C34   C39   A    
C32   C35   A    
O1    Zn1   S    
C22   O12   S    
C21   H13   S    
C19   H6    S    
C12   C21   S    
C8    C18   A    
C5    C9    A    
C35   H8    S    
C17   O11   A    
O7    Zn1   S    
C2    C26   A    
C3    C31   A    
C41   H17   S    
C4    C32   A    
C4    C17   S    
C12   O5    A    
C7    C19   A    
O8    Zn1   S    
C13   C15   A    
C9    C34   A    
C10   C23   A    
C11   H3    S    
C37   N2    S    
C7    C9    A    
C1    C20   S    
C16   O10   A    
O10   Zn2   S    
C15   C42   A    
C20   H11   S    
C25   C42   A    
C6    C10   A    
C5    C8    A    
C6    C7    A    
C27   C36   A    
C23   C38   A    
C28   C30   A    
O6    Zn2   S    
C6    C13   A    
C38   C40   A    
C28   C37   A    
C1    O1    A    
C2    C14   A    
C24   O2    S    
C20   C21   D    
C8    C10   A    
N3    N4    D    
C17   O9    A    
C26   O3    S    
C25   O4    S    
C4    C30   A    
C3    C16   S    
C19   C41   A    
C29   H10   S    
C14   H20   S    
