data_str_m4_o4_o15_f0_acs.sym.28
_audit_creation_date              2012-12-11T15:44:55-0500
_audit_creation_method            fapswitch 2.2
_symmetry_space_group_name_H-M    P1
_symmetry_Int_Tables_number       1
_space_group_crystal_system       triclinic
_cell_length_a                    19.145294
_cell_length_b                    10.977934
_cell_length_c                    18.752008
_cell_angle_alpha                 90.026734
_cell_angle_beta                  90.237223
_cell_angle_gamma                 90.240423
_cell_volume                      3941.14885427

loop_
_atom_site_label
_atom_site_type_symbol
_atom_type_description
_atom_site_fract_x
_atom_site_fract_y
_atom_site_fract_z
_atom_type_partial_charge
C1    C     C_R   0.774298 0.481532 0.638253 0.549477
C2    C     C_R   0.174658 0.089912 0.551150 0.217452
C3    C     C_R   0.474504 0.948899 0.970037 0.040290
C4    C     C_R   0.984254 0.230549 0.967751 -0.167647
C5    C     C_R   0.986955 0.230393 0.042351 -0.169729
C6    C     C_R   0.477058 0.730124 0.969443 -0.162369
C7    C     C_R   0.481838 0.730499 0.044036 -0.163957
C8    C     C_3   0.019637 0.568821 0.041027 -0.270171
C9    C     C_3   0.014679 0.566470 0.960727 -0.279932
C10   C     C_3   0.518387 0.069242 0.041274 -0.268892
C11   C     C_3   0.513100 0.065917 0.960931 -0.279119
C12   C     C_R   0.762323 0.526541 0.854494 0.551915
C13   C     C_R   0.307971 0.662882 0.437805 0.207732
C14   C     C_R   0.240072 0.533438 0.148373 0.559958
C15   C     C_R   0.262517 0.025887 0.854736 0.546240
C16   C     C_R   0.738896 0.029740 0.146805 0.558730
C17   C     C_R   0.772353 0.126397 0.852964 0.556277
C18   C     C_R   0.227971 0.123875 0.147782 0.559056
C19   C     C_R   0.274532 0.631654 0.855215 0.550635
C20   C     C_R   0.727772 0.624122 0.147705 0.555394
C21   C     C_R   0.967666 0.347068 0.855172 0.560445
C22   C     C_R   0.028747 0.346964 0.147272 0.552197
C23   C     C_R   0.466298 0.847070 0.855907 0.546311
C24   C     C_R   0.717687 0.442991 0.519402 0.190099
C25   C     C_R   0.528453 0.846963 0.147481 0.557026
C26   C     C_R   0.748838 0.082704 0.423358 0.064613
C27   C     C_R   0.242169 0.101132 0.581877 0.019822
C28   C     C_R   0.247963 0.595492 0.420999 0.039062
C29   C     C_R   0.767620 0.505297 0.562357 0.001413
C30   C     C_R   0.728953 0.007208 0.478916 -0.051325
C31   C     C_R   0.296148 0.149835 0.541105 -0.004264
C32   C     C_R   0.197401 0.580084 0.473229 -0.020644
C33   C     C_R   0.811931 0.589443 0.530342 -0.002369
C34   C     C_R   0.745190 0.033347 0.548556 0.035302
C35   C     C_3   0.658216 0.961439 0.497033 -0.273630
C36   C     C_R   0.284912 0.178832 0.469546 0.028053
C37   C     C_R   0.211753 0.605788 0.543290 0.030906
C38   C     C_R   0.803971 0.618877 0.458969 0.011230
C39   C     C_3   0.331990 0.268010 0.555968 -0.269492
C40   C     C_3   0.152780 0.473469 0.491435 -0.270831
C41   C     C_3   0.821010 0.719607 0.551478 -0.252228
C42   C     C_3   0.676416 0.987836 0.574378 -0.244540
C43   C     C_3   0.319667 0.300397 0.478926 -0.248996
C44   C     C_3   0.170179 0.499608 0.569236 -0.246121
C45   C     C_R   0.238584 0.533980 0.353522 0.589176
C46   C     C_3   0.812257 0.750860 0.473693 -0.257096
C47   C     C_R   0.779323 0.141214 0.565136 0.041158
C48   C     C_R   0.219949 0.155130 0.437174 -0.035308
C49   C     C_R   0.277009 0.649843 0.563856 -0.017376
C50   C     C_R   0.751681 0.564804 0.417753 0.014403
C51   C     C_R   0.978273 0.340389 0.411875 0.018920
C52   C     C_R   0.969532 0.340593 0.561640 -0.030782
C53   C     C_R   0.496144 0.831705 0.424565 0.027908
C54   C     C_R   0.502172 0.845004 0.574712 -0.042844
C55   C     C_R   0.957184 0.123569 0.405991 -0.050558
C56   C     C_R   0.259750 0.036070 0.647297 0.568291
C57   C     C_R   0.953314 0.109983 0.553391 -0.041189
C58   C     C_R   0.508404 0.606646 0.434263 -0.049017
C59   C     C_R   0.529493 0.628159 0.580612 -0.079638
C60   C     C_R   0.943409 0.013504 0.438433 -0.119170
C61   C     C_R   0.942307 0.006189 0.511976 -0.104957
C62   C     C_R   0.519566 0.503550 0.475768 -0.119669
C63   C     C_R   0.529815 0.514725 0.548892 -0.083371
C64   C     C_R   0.964633 0.226910 0.522272 -0.004516
C65   C     C_R   0.968552 0.229855 0.446751 0.023130
C66   C     C_R   0.513165 0.732703 0.540689 -0.024747
C67   C     C_R   0.739330 0.035004 0.352786 0.599714
C68   C     C_R   0.506862 0.723963 0.465506 0.017896
C69   C     C_R   0.974581 0.452740 0.522331 -0.014858
C70   C     C_R   0.964669 0.449562 0.448178 0.025349
C71   C     C_R   0.495109 0.951682 0.532482 0.002708
C72   C     C_R   0.478987 0.940284 0.459809 0.010433
C73   C     C_R   0.791998 0.171481 0.638964 0.529281
C74   C     C_R   0.208533 0.172474 0.361013 0.563745
C75   C     C_R   0.291518 0.671661 0.638870 0.559623
C76   C     C_R   0.727407 0.622531 0.352753 0.560153
C77   C     C_R   0.993503 0.568480 0.552076 -0.101202
C78   C     C_R   0.804439 0.215245 0.509378 -0.097753
C79   C     C_R   0.954588 0.559336 0.410338 -0.041699
C80   C     C_R   0.507229 0.070482 0.559441 -0.078398
C81   C     C_R   0.456781 0.043992 0.421733 -0.047066
C82   C     C_R   0.996799 0.673317 0.510363 -0.147667
C83   C     C_R   0.975663 0.669129 0.439831 -0.120914
C84   C     C_R   0.499548 0.171712 0.515795 -0.122704
C85   C     C_R   0.472880 0.158904 0.447360 -0.119056
C86   C     C_R   0.745629 0.059691 0.071794 0.022143
C87   C     C_R   0.258200 0.050280 0.930808 0.015204
C88   C     C_R   0.255560 0.590145 0.079955 0.021338
C89   C     C_R   0.164487 0.114510 0.479199 -0.125339
C90   C     C_R   0.757423 0.552388 0.930313 0.016654
C91   C     C_R   0.783194 0.978482 0.029468 0.041795
C92   C     C_R   0.206080 0.990275 0.968767 0.038320
C93   C     C_R   0.315218 0.553163 0.042815 0.034488
C94   C     C_R   0.703617 0.496013 0.967705 0.031117
C95   C     C_R   0.784936 0.988514 0.956521 0.018021
C96   C     C_R   0.201585 0.999894 0.041478 0.031635
C97   C     C_R   0.318574 0.563862 0.970135 0.039405
C98   C     C_R   0.698817 0.505512 0.040294 0.025922
C99   C     C_R   0.704083 0.156076 0.963462 -0.165628
C100  C     C_R   0.323001 0.689819 0.509967 -0.132930
C101  C     C_R   0.309787 0.112246 0.044348 -0.164208
C102  C     C_R   0.209221 0.670121 0.968585 -0.161718
C103  C     C_R   0.809474 0.609993 0.044452 -0.153889
C104  C     C_R   0.702164 0.144388 0.037846 -0.172668
C105  C     C_R   0.313783 0.102932 0.969685 -0.160799
C106  C     C_R   0.205672 0.660130 0.043210 -0.163471
C107  C     C_R   0.813887 0.600776 0.969818 -0.154007
C108  C     C_3   0.858024 0.942183 0.034353 -0.265863
C109  C     C_3   0.128989 0.992912 0.957871 -0.276764
C110  C     C_3   0.352102 0.432947 0.040648 -0.270145
C111  C     C_R   0.711513 0.471164 0.447545 -0.055101
C112  C     C_3   0.626693 0.503240 0.956259 -0.280757
C113  C     C_3   0.859589 0.948532 0.953852 -0.269162
C114  C     C_3   0.123403 0.003798 0.037914 -0.272388
C115  C     C_3   0.355578 0.445892 0.960562 -0.280646
C116  C     C_3   0.620786 0.514660 0.036316 -0.268993
C117  C     C_R   0.750059 0.083845 0.922637 0.013505
C118  C     C_R   0.249354 0.071718 0.079777 0.019120
C119  C     C_R   0.263447 0.612320 0.930979 0.014010
C120  C     C_R   0.748065 0.573137 0.079224 0.022456
C121  C     C_R   0.949515 0.348524 0.638264 0.527977
C122  C     C_R   0.789142 0.186209 0.437942 0.215240
C123  C     C_R   0.023735 0.346162 0.348541 0.530701
C124  C     C_R   0.472305 0.847297 0.647357 0.526134
C125  C     C_R   0.527941 0.844405 0.352834 0.567690
C126  C     C_R   0.992957 0.341292 0.079208 0.023721
C127  C     C_R   0.983645 0.341557 0.930424 0.016964
C128  C     C_R   0.491207 0.841583 0.080167 0.022774
C129  C     C_R   0.479800 0.840954 0.931667 0.016523
C130  C     C_R   0.980634 0.449719 0.041859 0.029559
C131  C     C_R   0.976352 0.448955 0.969058 0.038839
C132  C     C_R   0.479321 0.950115 0.042727 0.031924
Cl1   Cl    Cl    0.815531 0.283142 0.368222 -0.684356
Cl2   Cl    Cl    0.100974 0.044445 0.600228 -0.638945
Cl3   Cl    Cl    0.360623 0.716385 0.368208 -0.655748
Cl4   Cl    Cl    0.659504 0.331321 0.551550 -0.702447
Cr1   Cr    Cr6+3 0.885860 0.491680 0.749630 1.004286
Cr2   Cr    Cr6+3 0.112430 0.179310 0.249850 1.005590
Cr3   Cr    Cr6+3 0.387570 0.679310 0.750150 1.001865
Cr4   Cr    Cr6+3 0.612430 0.679310 0.249850 1.021147
Cr5   Cr    Cr6+3 0.114140 0.491680 0.250370 1.014505
Cr6   Cr    Cr6+3 0.385860 0.991680 0.749630 1.006012
Cr7   Cr    Cr6+3 0.614140 0.991680 0.250370 1.027295
Cr8   Cr    Cr6+3 0.730490 0.332970 0.748720 1.034249
Cr9   Cr    Cr6+3 0.269510 0.332970 0.251280 1.023705
Cr10  Cr    Cr6+3 0.230490 0.832970 0.748720 1.057476
Cr11  Cr    Cr6+3 0.769510 0.832970 0.251280 1.011083
Cr12  Cr    Cr6+3 0.887570 0.179310 0.750150 1.012833
H1    H     H_    0.832894 0.297715 0.521388 0.101786
H2    H     H_    0.350759 0.159637 0.073145 0.122275
H3    H     H_    0.168748 0.719034 0.940425 0.130836
H4    H     H_    0.851520 0.652261 0.074141 0.117972
H5    H     H_    0.668762 0.203720 0.068659 0.125858
H6    H     H_    0.358537 0.140620 0.942459 0.130541
H7    H     H_    0.161637 0.698850 0.071025 0.122688
H8    H     H_    0.860059 0.633978 0.943153 0.127268
H9    H     H_    0.865132 0.849263 0.055508 0.138235
H10   H     H_    0.107815 0.905634 0.936859 0.137094
H11   H     H_    0.317647 0.357015 0.057283 0.163958
H12   H     H_    0.113007 0.101748 0.456030 0.169567
H13   H     H_    0.604229 0.416857 0.935227 0.133914
H14   H     H_    0.890809 0.012877 0.060692 0.137862
H15   H     H_    0.111493 0.075758 0.928880 0.142116
H16   H     H_    0.404187 0.436463 0.067029 0.130654
H17   H     H_    0.610827 0.586960 0.927111 0.139750
H18   H     H_    0.895838 0.019171 0.934133 0.161915
H19   H     H_    0.103091 0.093444 0.054664 0.165406
H20   H     H_    0.409660 0.457690 0.940469 0.134103
H21   H     H_    0.602199 0.605642 0.053059 0.165707
H22   H     H_    0.865300 0.858030 0.928064 0.130022
H23   H     H_    0.369814 0.739612 0.523893 0.140350
H24   H     H_    0.098603 0.923207 0.063444 0.130949
H25   H     H_    0.323472 0.377214 0.931458 0.139196
H26   H     H_    0.594141 0.435682 0.061646 0.129969
H27   H     H_    0.985585 0.145070 0.939362 0.120523
H28   H     H_    0.991277 0.144697 0.070363 0.117041
H29   H     H_    0.473928 0.644049 0.941543 0.132193
H30   H     H_    0.484958 0.644669 0.072237 0.125761
H31   H     H_    0.074209 0.559941 0.059925 0.167692
H32   H     H_    0.981586 0.640268 0.938619 0.133530
H33   H     H_    0.573009 0.061312 0.060169 0.171200
H34   H     H_    0.671205 0.425892 0.416462 0.183044
H35   H     H_    0.480118 0.139688 0.938638 0.134389
H36   H     H_    0.989367 0.644030 0.065615 0.124865
H37   H     H_    0.066050 0.555108 0.934111 0.138845
H38   H     H_    0.488090 0.144678 0.065589 0.126948
H39   H     H_    0.564285 0.053591 0.934125 0.142377
H40   H     H_    0.171745 0.384949 0.471533 0.114055
H41   H     H_    0.873922 0.738633 0.573004 0.151867
H42   H     H_    0.651048 0.862904 0.485513 0.125765
H43   H     H_    0.387440 0.256390 0.570579 0.152801
H44   H     H_    0.617872 0.022075 0.474062 0.188034
H45   H     H_    0.015609 0.757940 0.533154 0.147913
H46   H     H_    0.303192 0.326114 0.594114 0.140048
H47   H     H_    0.098816 0.492260 0.475609 0.178058
H48   H     H_    0.777636 0.753579 0.585231 0.146846
H49   H     H_    0.645268 0.061501 0.598849 0.186926
H50   H     H_    0.284439 0.378105 0.472844 0.136728
H51   H     H_    0.125309 0.528357 0.601835 0.152188
H52   H     H_    0.763092 0.796780 0.460901 0.151121
H53   H     H_    0.681562 0.904265 0.607362 0.128538
H54   H     H_    0.367578 0.311466 0.447365 0.150544
H55   H     H_    0.202641 0.428356 0.594540 0.142070
H56   H     H_    0.977376 0.749734 0.407114 0.103318
H57   H     H_    0.858872 0.790962 0.448608 0.144090
H58   H     H_    0.932496 0.935097 0.405717 0.103648
H59   H     H_    0.932344 0.919841 0.537540 0.112028
H60   H     H_    0.520587 0.415240 0.450688 0.117533
H61   H     H_    0.537715 0.436351 0.582377 0.162580
H62   H     H_    0.953794 0.126499 0.348383 0.159219
H63   H     H_    0.954273 0.090721 0.609124 0.207160
H64   H     H_    0.496767 0.591522 0.378584 0.177497
H65   H     H_    0.541911 0.632964 0.636882 0.138288
H66   H     H_    0.937889 0.558501 0.355032 0.149124
H67   H     H_    0.512197 0.260112 0.536250 0.141021
H68   H     H_    0.013889 0.581371 0.604885 0.159674
H69   H     H_    0.435054 0.036262 0.368462 0.159084
H70   H     H_    0.528134 0.086436 0.612229 0.147135
H71   H     H_    0.466742 0.236910 0.412931 0.098800
H72   H     H_    0.674276 0.228490 0.939001 0.140406
O1    O     O_R   0.957020 0.451640 0.669920 -0.528255
O2    O     O_R   0.168040 0.093290 0.169870 -0.515926
O3    O     O_R   0.331960 0.593290 0.830130 -0.515438
O4    O     O_R   0.668040 0.593290 0.169870 -0.519558
O5    O     O_R   0.945600 0.250580 0.824860 -0.495773
O6    O     O_R   0.054400 0.250580 0.175140 -0.511570
O7    O     O_R   0.445600 0.750580 0.824860 -0.509797
O8    O     O_R   0.554400 0.750580 0.175140 -0.506708
O9    O     O_3   0.834640 0.334650 0.749500 -0.306330
O10   O     O_3   0.165360 0.334650 0.250500 -0.277834
O11   O     O_3   0.334640 0.834650 0.749500 -0.279024
O12   O     O_R   0.042980 0.451640 0.330080 -0.526740
O13   O     O_3   0.665360 0.834650 0.250500 -0.259934
O14   O     O_R   0.821450 0.543440 0.674610 -0.513599
O15   O     O_R   0.178550 0.543440 0.325390 -0.494999
O16   O     O_R   0.321450 0.043440 0.674610 -0.509277
O17   O     O_R   0.678550 0.043440 0.325390 -0.489807
O18   O     O_R   0.715320 0.458650 0.668100 -0.458906
O19   O     O_R   0.284680 0.458650 0.331900 -0.503823
O20   O     O_R   0.215320 0.958650 0.668100 -0.446870
O21   O     O_R   0.784680 0.958650 0.331900 -0.524272
O22   O     O_R   0.737170 0.209590 0.674530 -0.461820
O23   O     O_R   0.457020 0.951640 0.669920 -0.522836
O24   O     O_R   0.262830 0.209590 0.325470 -0.491636
O25   O     O_R   0.237170 0.709590 0.674530 -0.485347
O26   O     O_R   0.762830 0.709590 0.325470 -0.505388
O27   O     O_R   0.832710 0.092740 0.669580 -0.538033
O28   O     O_R   0.167290 0.092740 0.330420 -0.498649
O29   O     O_R   0.332710 0.592740 0.669580 -0.516638
O30   O     O_R   0.667290 0.592740 0.330420 -0.525930
O31   O     O_R   0.946290 0.250060 0.676040 -0.509454
O32   O     O_R   0.053710 0.250060 0.323960 -0.532089
O33   O     O_R   0.446290 0.750060 0.676040 -0.519345
O34   O     O_R   0.542980 0.951640 0.330080 -0.527137
O35   O     O_R   0.553710 0.750060 0.323960 -0.504116
O36   O     O_R   0.956270 0.452200 0.830470 -0.513253
O37   O     O_R   0.043730 0.452200 0.169530 -0.525133
O38   O     O_R   0.456270 0.952200 0.830470 -0.518861
O39   O     O_R   0.543730 0.952200 0.169530 -0.524814
O40   O     O_R   0.820760 0.543950 0.823440 -0.502819
O41   O     O_R   0.179240 0.543950 0.176560 -0.507166
O42   O     O_R   0.320760 0.043950 0.823440 -0.510565
O43   O     O_R   0.679240 0.043950 0.176560 -0.507156
O44   O     O_R   0.714570 0.459210 0.828640 -0.517011
O45   O     O_R   0.736470 0.210100 0.823360 -0.507283
O46   O     O_R   0.285430 0.459210 0.171360 -0.513473
O47   O     O_R   0.214570 0.959210 0.828640 -0.510457
O48   O     O_R   0.785430 0.959210 0.171360 -0.515130
O49   O     O_R   0.263530 0.210100 0.176640 -0.507479
O50   O     O_R   0.236470 0.710100 0.823360 -0.506119
O51   O     O_R   0.763530 0.710100 0.176640 -0.506353
O52   O     O_R   0.831960 0.093290 0.830130 -0.517549

loop_
_geom_bond_atom_site_label_1
_geom_bond_atom_site_label_2
_ccdc_geom_bond_type
C58   C62   A    
C46   H57   S    
C66   C68   A    
Cr9   O10   S    
C57   H63   S    
C35   H44   S    
C29   C33   A    
C51   C123  S    
Cr12  O52   S    
C69   C77   A    
C103  C120  A    
C34   C42   S    
C3    C11   S    
C20   C120  S    
C80   C84   A    
C6    C7    A    
C86   C104  A    
C55   H62   S    
C67   O21   A    
C114  H19   S    
C11   H35   S    
C95   C117  A    
Cr5   O12   S    
C114  H24   S    
C112  H13   S    
Cr10  O25   S    
C76   O30   A    
C2    Cl2   S    
Cr7   O43   S    
C30   C35   S    
C89   H12   S    
C11   H39   S    
C26   C67   S    
C96   C118  A    
Cr3   O33   S    
C25   C128  S    
C124  O33   A    
C90   C107  A    
C41   H48   S    
C15   O47   A    
C86   C91   A    
C6    C129  A    
C59   C66   A    
C80   H70   S    
C92   C109  S    
C22   C126  S    
C94   C98   A    
C9    H37   S    
Cr6   O23   S    
C116  H26   S    
Cr11  O21   S    
Cr1   O1    S    
C101  H2    S    
C92   C96   A    
C39   H43   S    
C23   C129  S    
Cr9   O49   S    
C73   O27   A    
Cr6   O38   S    
C94   C112  S    
Cr2   O6    S    
C35   C42   S    
Cr7   O17   S    
C24   C29   A    
Cr11  O48   S    
C82   H45   S    
Cr11  O51   S    
C52   C69   A    
C40   H40   S    
C16   O43   A    
C98   C116  S    
C79   H66   S    
C73   O22   A    
Cr8   O45   S    
Cr11  O26   S    
C8    C9    S    
C4    H27   S    
Cr8   O22   S    
C5    C126  A    
C44   H55   S    
C17   O45   A    
C41   C46   S    
C49   C75   S    
C13   C28   A    
C102  C106  A    
C2    C27   A    
C51   C70   A    
C7    C128  A    
C97   C115  S    
C18   C118  S    
C75   O29   A    
C72   C81   A    
C75   O25   A    
C84   H67   S    
C17   C117  S    
C93   C110  S    
C69   C70   A    
C74   O24   A    
C8    H36   S    
C125  O35   A    
C105  H6    S    
C19   C119  S    
C55   C60   A    
C100  H23   S    
C16   C86   S    
C13   Cl3   S    
C96   C114  S    
Cr3   O29   S    
C24   C111  A    
Cr5   O41   S    
C63   H61   S    
C17   O52   A    
C18   O2    A    
C109  H10   S    
C128  C132  A    
C28   C32   A    
C62   H60   S    
C71   C80   A    
C55   C65   A    
C81   C85   A    
C90   C94   A    
C19   O50   A    
C10   C132  S    
Cr10  O11   S    
C9    C131  S    
C22   O37   A    
C51   C65   A    
C39   H46   S    
C76   O26   A    
C28   C45   S    
Cr4   O8    S    
Cr3   O7    S    
C38   C50   A    
C30   C34   A    
C27   C31   A    
C3    C132  A    
C48   C74   S    
Cr8   O9    S    
Cr2   O10   S    
Cr7   O39   S    
C84   C85   A    
C23   O38   A    
Cr1   O9    S    
C109  H15   S    
C8    C130  S    
C113  H18   S    
C60   H58   S    
C126  C130  A    
C110  H16   S    
C27   C56   S    
Cr4   O4    S    
C39   C43   S    
C108  H9    S    
C121  O1    A    
Cr5   O10   S    
C108  H14   S    
C67   O17   A    
C111  H34   S    
Cr5   O37   S    
C44   H51   S    
C7    H30   S    
C60   C61   A    
C108  C113  S    
C97   C119  A    
C2    C89   A    
C45   O19   A    
C122  Cl1   S    
C62   C63   A    
C14   O41   A    
C50   C76   S    
C99   C117  A    
C88   C106  A    
C52   C121  S    
C46   H52   S    
C87   C105  A    
Cr10  O50   S    
C1    O14   A    
Cr5   O15   S    
C81   H69   S    
C43   H54   S    
C1    C29   S    
C20   O4    A    
Cr8   O18   S    
Cr4   O35   S    
C32   C37   A    
C124  O23   A    
C98   C120  A    
C4    C5    A    
Cr12  O9    S    
C20   O51   A    
C47   C73   S    
C37   C49   A    
C16   O48   A    
C9    H32   S    
C53   C125  S    
C109  C114  S    
C61   H59   S    
C54   C66   A    
C12   O44   A    
Cr11  O13   S    
C58   C68   A    
Cr9   O19   S    
Cr10  O20   S    
C26   C30   A    
C35   H42   S    
C48   C89   A    
Cr1   O14   S    
C6    H29   S    
C52   C64   A    
Cr4   O13   S    
C104  H5    S    
C5    H28   S    
Cr7   O34   S    
C21   C127  S    
C101  C118  A    
Cr2   O28   S    
Cr8   O44   S    
C93   C97   A    
C112  C116  S    
C32   C40   S    
C21   O5    A    
C57   C64   A    
C15   C87   S    
Cr1   O40   S    
Cr3   O3    S    
C54   C124  S    
C88   C93   A    
C123  O12   A    
Cr12  O31   S    
C99   C104  A    
C4    C127  A    
C70   C79   A    
C3    C129  A    
C59   C63   A    
C91   C108  S    
C56   O20   A    
C42   H49   S    
C74   O28   A    
Cr12  O5    S    
C45   O15   A    
C83   H56   S    
C42   H53   S    
C53   C68   A    
C12   C90   S    
C23   O7    A    
Cr10  O47   S    
C59   H65   S    
C57   C61   A    
C113  H22   S    
C22   O6    A    
C58   H64   S    
C1    O18   A    
Cr6   O42   S    
C102  H3    S    
C25   O8    A    
Cr2   O32   S    
C33   C38   A    
C41   H41   S    
C103  C107  A    
Cr9   O46   S    
C64   C65   A    
Cr7   O13   S    
C13   C100  A    
C130  C131  A    
C85   H71   S    
C33   C41   S    
C123  O32   A    
C115  H25   S    
C15   O42   A    
C103  H4    S    
C95   C113  S    
C49   C100  A    
C79   C83   A    
C8    H31   S    
C24   Cl4   S    
Cr6   O11   S    
C78   H1    S    
C77   C82   A    
C37   C44   S    
C112  H17   S    
C54   C71   A    
Cr6   O16   S    
C50   C111  A    
C10   H38   S    
C31   C39   S    
C116  H21   S    
C36   C48   A    
C43   H50   S    
Cr12  O27   S    
C125  O34   A    
C78   C122  A    
C101  C105  A    
C127  C131  A    
C38   C46   S    
Cr1   O36   S    
C121  O31   A    
C10   C11   S    
C102  C119  A    
C107  H8    S    
C14   C88   S    
C25   O39   A    
C19   O3    A    
C12   O40   A    
C40   C44   S    
C71   C72   A    
C99   H72   S    
Cr9   O24   S    
C91   C95   A    
C106  H7    S    
C10   H33   S    
Cr2   O2    S    
C31   C36   A    
C56   O16   A    
C36   C43   S    
Cr3   O11   S    
C34   C47   A    
C26   C122  A    
C47   C78   A    
C82   C83   A    
C115  H20   S    
C87   C92   A    
C53   C72   A    
C110  C115  S    
C18   O49   A    
Cr4   O30   S    
C110  H11   S    
C14   O46   A    
C77   H68   S    
C21   O36   A    
C40   H47   S    
