data_str_m2_o10_o29_f0_pcu.sym.118
_audit_creation_date              2012-12-10T16:51:11-0500
_audit_creation_method            fapswitch 2.2
_symmetry_space_group_name_H-M    P1
_symmetry_Int_Tables_number       1
_space_group_crystal_system       triclinic
_cell_length_a                    27.648615
_cell_length_b                    8.655579
_cell_length_c                    7.514487
_cell_angle_alpha                 103.310701
_cell_angle_beta                  95.279626
_cell_angle_gamma                 93.131458
_cell_volume                      1737.25137927

loop_
_atom_site_label
_atom_site_type_symbol
_atom_type_description
_atom_site_fract_x
_atom_site_fract_y
_atom_site_fract_z
_atom_type_partial_charge
C1    C     C_R   0.498486 0.199724 0.452947 0.878727
C2    C     C_R   0.501496 0.800282 0.547052 0.882748
C3    C     C_R   0.105130 0.429958 0.609980 -0.146129
C4    C     C_R   0.901599 0.483602 0.564254 -0.136935
C5    C     C_R   0.124846 0.285614 0.529330 -0.039735
C6    C     C_R   0.883108 0.636342 0.617653 -0.053819
C7    C     C_R   0.094112 0.141985 0.489605 0.103418
C8    C     C_R   0.916573 0.773489 0.682357 0.127914
C9    C     C_R   0.136561 0.567367 0.684715 -0.201327
C10   C     C_R   0.868747 0.348663 0.494442 -0.204257
C11   C     C_R   0.354134 0.483908 0.503010 -0.124247
C12   C     C_R   0.646815 0.504942 0.502793 -0.112163
C13   C     C_R   0.970449 0.310751 0.524142 -0.121479
C14   C     C_R   0.035777 0.584497 0.697061 -0.111751
C15   C     C_R   0.984989 0.600528 0.663934 0.070735
C16   C     C_R   0.022339 0.298780 0.547165 0.071041
C17   C     C_R   0.952535 0.464858 0.582388 0.007284
C18   C     C_R   0.054199 0.437626 0.617826 0.018712
C19   C     C_R   0.935677 0.178936 0.434564 0.360238
C20   C     C_R   0.068989 0.708873 0.810537 0.355510
C21   C     C_R   0.885940 0.202396 0.412669 0.446107
C22   C     C_R   0.119612 0.695900 0.807715 0.443534
C23   C     C_R   0.407437 0.500861 0.500755 0.812398
C24   C     C_R   0.592818 0.500393 0.499248 0.814035
C25   C     C_R   0.044219 0.152988 0.507385 -0.216794
C26   C     C_R   0.966429 0.751763 0.697201 -0.121256
C27   C     C_2   0.497758 0.031272 0.426986 -0.373896
C28   C     C_2   0.502197 0.968740 0.573019 -0.372196
C29   C     C_R   0.175043 0.292287 0.501007 0.586817
C30   C     C_R   0.831490 0.644110 0.598868 0.585310
C31   C     C_R   0.184972 0.569321 0.644317 0.580852
C32   C     C_R   0.818944 0.362236 0.510553 0.593577
C33   C     C_R   0.270397 0.519621 0.400865 -0.191328
C34   C     C_R   0.722899 0.475276 0.363464 -0.245668
C35   C     C_R   0.320378 0.546734 0.388883 0.131414
C36   C     C_R   0.671819 0.466952 0.342341 0.115683
C37   C     C_R   0.336722 0.400638 0.627486 -0.361019
C38   C     C_R   0.674392 0.548206 0.677079 -0.366515
C39   C     C_R   0.286751 0.376109 0.639350 0.522318
C40   C     C_R   0.725521 0.555871 0.695901 0.549202
C41   C     C_R   0.253753 0.438648 0.527209 0.243275
C42   C     C_R   0.749411 0.516494 0.537416 0.260150
Cu1   Cu    Cu3+1 0.505380 0.517380 0.684380 0.939850
Cu2   Cu    Cu3+1 0.494620 0.482620 0.315620 0.936245
H1    H     H_    0.362275 0.356710 0.718568 0.165660
H2    H     H_    0.656015 0.572538 0.800227 0.169043
H3    H     H_    0.461818 0.375465 0.948471 0.220891
H4    H     H_    0.538109 0.624759 0.051551 0.216226
H5    H     H_    0.742705 0.444282 0.243850 0.168098
H6    H     H_    0.243973 0.567667 0.316830 0.149704
H7    H     H_    0.023669 0.045334 0.501517 0.222280
H8    H     H_    0.991265 0.855064 0.725353 0.191402
H9    H     H_    0.493587 0.958540 0.286852 0.179576
H10   H     H_    0.506385 0.041483 0.713162 0.176998
N1    N     N_R   0.203061 0.433419 0.554322 -0.436932
N2    N     N_R   0.801283 0.507951 0.551897 -0.435457
N3    N     N_2   0.486510 0.456430 0.038510 -0.216901
N4    N     N_2   0.513490 0.543570 0.961490 -0.220537
O1    O     O_R   0.503500 0.286120 0.619780 -0.580325
O2    O     O_R   0.496500 0.713880 0.380220 -0.583321
O3    O     O_R   0.494410 0.256780 0.308360 -0.585968
O4    O     O_R   0.505590 0.743220 0.691640 -0.584113
O5    O     O_R   0.434810 0.514700 0.655690 -0.580771
O6    O     O_R   0.565190 0.485300 0.344310 -0.586024
O7    O     O_R   0.425720 0.485350 0.344280 -0.590972
O8    O     O_R   0.574280 0.514650 0.655720 -0.585322
O9    O     O_2   0.195916 0.161801 0.417816 -0.587465
O10   O     O_2   0.811017 0.784144 0.625847 -0.562601
O11   O     O_2   0.788179 0.230928 0.488585 -0.490234
O12   O     O_2   0.213869 0.706503 0.693338 -0.522044
O13   O     O_3   0.269459 0.307933 0.773517 -0.589115
C43   C     C_3   0.284507 0.152275 0.754565 -0.244123
H11   H     H_    0.322840 0.155043 0.814873 0.138430
H12   H     H_    0.279706 0.082852 0.608763 0.185371
H13   H     H_    0.261485 0.088439 0.832354 0.226200
O14   O     O_3   0.752905 0.582286 0.866227 -0.585972
C44   C     C_3   0.740268 0.720825 0.987607 -0.304967
H14   H     H_    0.706712 0.696242 0.050129 0.149754
H15   H     H_    0.736309 0.821836 0.919752 0.177628
H16   H     H_    0.769911 0.758009 0.102160 0.222676
C45   C     C_3   0.114518 0.978160 0.439124 -0.340901
C46   C     C_3   0.078301 0.830745 0.400081 -0.878534
H17   H     H_    0.057955 0.827736 0.518539 0.230152
H18   H     H_    0.052107 0.828025 0.278720 0.301964
H19   H     H_    0.098145 0.721263 0.372794 0.243358
H20   H     H_    0.131883 0.968990 0.311298 0.261610
H21   H     H_    0.142466 0.968385 0.551384 0.246176
C47   C     C_3   0.898961 0.941021 0.735126 -0.256941
C48   C     C_3   0.935949 0.084703 0.817969 -0.889807
H22   H     H_    0.949493 0.088918 0.960198 0.223584
H23   H     H_    0.967852 0.088605 0.741398 0.276909
H24   H     H_    0.917556 0.195965 0.820426 0.245845
H25   H     H_    0.878901 0.965430 0.611474 0.298142
H26   H     H_    0.873296 0.940116 0.838737 0.200933
C49   C     C_3   0.646628 0.410948 0.147939 -0.367682
C50   C     C_3   0.624972 0.238714 0.109660 -0.748796
H27   H     H_    0.654546 0.158115 0.118960 0.241481
H28   H     H_    0.598912 0.222926 0.208915 0.253399
H29   H     H_    0.605488 0.203918 0.968682 0.235502
H30   H     H_    0.618866 0.492096 0.119278 0.208550
H31   H     H_    0.673061 0.415130 0.045931 0.205296
C51   C     C_3   0.334912 0.651234 0.262490 -0.383895
C52   C     C_3   0.323221 0.823360 0.335903 -0.831026
H32   H     H_    0.283458 0.831162 0.342563 0.259148
H33   H     H_    0.342759 0.871906 0.475345 0.246964
H34   H     H_    0.335172 0.897554 0.243099 0.247733
H35   H     H_    0.373995 0.654204 0.243956 0.230791
H36   H     H_    0.314900 0.603993 0.123482 0.225373
O15   O     O_3   0.853886 0.074434 0.319758 -0.528618
C53   C     C_3   0.835463 0.102167 0.148746 -0.270471
H37   H     H_    0.819981 0.987254 0.057989 0.188948
H38   H     H_    0.864120 0.152879 0.079048 0.130620
H39   H     H_    0.805460 0.182531 0.163622 0.192708
O16   O     O_3   0.152111 0.807011 0.929971 -0.545940
C54   C     C_3   0.173293 0.735497 0.066585 -0.240909
H40   H     H_    0.145193 0.677505 0.131566 0.140864
H41   H     H_    0.194815 0.829021 0.175146 0.199474
H42   H     H_    0.198983 0.646999 0.011087 0.178704
O17   O     O_3   0.946306 0.021605 0.414376 -0.600906
C55   C     C_3   0.952714 0.949335 0.231732 -0.291024
H43   H     H_    0.984366 0.009094 0.187350 0.173476
H44   H     H_    0.918886 0.942244 0.138578 0.203911
H45   H     H_    0.961367 0.824722 0.225515 0.202023
O18   O     O_3   0.051608 0.826489 0.943687 -0.606935
C56   C     C_3   0.069888 0.981738 0.939177 -0.287184
H46   H     H_    0.080678 0.991510 0.803327 0.167144
H47   H     H_    0.101021 0.024684 0.045810 0.228775
H48   H     H_    0.041109 0.064564 0.972815 0.156663

loop_
_geom_bond_atom_site_label_1
_geom_bond_atom_site_label_2
_ccdc_geom_bond_type
C8    C26   A    
C14   C18   A    
C49   C50   S    
C34   C42   A    
C35   C51   S    
O16   C54   S    
Cu1   O5    S    
C39   C41   A    
C44   H14   S    
Cu2   O6    S    
C19   C21   A    
C1    O1    A    
C2    O2    A    
C9    C22   A    
C54   H40   S    
C50   H29   S    
C3    C18   A    
C11   C23   S    
C11   C37   A    
C53   H37   S    
C41   N1    S    
Cu1   N4    S    
C42   N2    S    
C29   O9    S    
C31   O12   S    
C54   H41   S    
C50   H28   S    
C56   H48   S    
C51   H36   S    
C48   H23   S    
C45   H20   S    
C55   H45   S    
Cu1   O1    S    
C23   O5    A    
C19   O17   S    
C24   O6    A    
Cu2   O7    S    
C43   H13   S    
C55   H44   S    
C45   C46   S    
C5    C29   A    
C44   H15   S    
C10   C21   A    
C47   H26   S    
C38   H2    S    
C13   C19   A    
C14   C20   A    
O14   C44   S    
C43   H12   S    
C5    C7    A    
C28   H10   S    
C49   H30   S    
C15   C26   A    
C6    C8    A    
C29   N1    A    
C33   H6    S    
C30   N2    A    
C40   O14   S    
C8    C47   S    
Cu1   Cu2   S    
C25   H7    S    
C3    C9    A    
C26   H8    S    
H3    N3    S    
Cu2   N3    S    
C54   H42   S    
C50   H27   S    
C51   H35   S    
C52   H33   S    
C48   H24   S    
C53   H39   S    
C45   H21   S    
C4    C17   A    
C4    C6    A    
C7    C45   S    
C20   C22   A    
C46   H18   S    
C56   H46   S    
C12   C36   A    
C4    C10   A    
C52   H32   S    
C55   H43   S    
C1    C27   S    
C44   H16   S    
C16   C25   A    
C15   C17   A    
C47   H25   S    
C34   H5    S    
C6    C30   A    
C43   H11   S    
C3    C5    A    
C1    O3    A    
C21   O15   S    
O17   C55   S    
C27   H9    S    
H4    N4    S    
C32   O11   S    
C24   O8    A    
Cu2   O3    S    
C46   H19   S    
C12   C24   S    
C7    C25   A    
C13   C17   A    
C33   C41   A    
C23   O7    A    
C11   C35   A    
O13   C43   S    
C37   C39   A    
O15   C53   S    
C38   C40   A    
C36   C49   S    
N3    N4    D    
Cu2   O2    S    
Cu1   O8    S    
C40   C42   A    
C33   C35   A    
C52   H34   S    
C34   C36   A    
C12   C38   A    
C51   C52   S    
C53   H38   S    
C20   O18   S    
C9    C31   A    
C10   C32   A    
C22   O16   S    
C47   C48   S    
C16   C18   A    
C46   H17   S    
C13   C16   A    
C27   C28   D    
C56   H47   S    
C39   O13   S    
C14   C15   A    
C2    C28   S    
C31   N1    A    
C48   H22   S    
C37   H1    S    
C32   N2    A    
C30   O10   S    
C49   H31   S    
Cu1   O4    S    
C2    O4    A    
O18   C56   S    
