data_str_m9_o2_o25_f0_sra.sym.72
_audit_creation_date              2012-12-11T16:33:29-0500
_audit_creation_method            fapswitch 2.2
_symmetry_space_group_name_H-M    P1
_symmetry_Int_Tables_number       1
_space_group_crystal_system       triclinic
_cell_length_a                    6.947437
_cell_length_b                    18.233042
_cell_length_c                    20.17086
_cell_angle_alpha                 68.370447
_cell_angle_beta                  90.568197
_cell_angle_gamma                 90.926488
_cell_volume                      2374.85582419

loop_
_atom_site_label
_atom_site_type_symbol
_atom_type_description
_atom_site_fract_x
_atom_site_fract_y
_atom_site_fract_z
_atom_type_partial_charge
O1    O     O_R   0.488960 0.443750 0.941980 -0.539820
O2    O     O_R   0.823890 0.406510 0.087590 -0.533420
O3    O     O_R   0.999680 0.556250 0.058020 -0.530232
C1    C     C_R   0.654968 0.384284 0.115565 0.784909
O4    O     O_R   0.818360 0.434410 0.944340 -0.538113
O5    O     O_R   0.994110 0.584350 0.913750 -0.537011
C2    C     C_R   0.648675 0.420124 0.924111 0.708092
O6    O     O_R   0.494530 0.415650 0.086250 -0.536049
O7    O     O_3   0.662590 0.549160 0.990130 -0.362907
V1    V     V_3+5 0.935320 0.490880 0.001830 1.462388
O8    O     O_R   0.324180 0.593490 0.912410 -0.543179
C3    C     C_R   0.155726 0.616869 0.885246 0.685511
O9    O     O_R   0.329720 0.565590 0.055660 -0.532855
C4    C     C_R   0.162249 0.580084 0.075848 0.722070
V2    V     V_3+5 0.435990 0.509120 0.998170 1.456249
O10   O     O_3   0.158850 0.450840 0.009870 -0.367466
C5    C     C_3   0.055149 0.707022 0.310589 -0.220296
C6    C     C_3   0.242821 0.686741 0.279654 -0.218167
H1    H     H_    0.330473 0.633164 0.305123 0.111543
H2    H     H_    0.987724 0.670296 0.362046 0.120317
C7    C     C_1   0.156569 0.626529 0.120776 -0.201656
C8    C     C_1   0.110278 0.876687 0.376371 -0.175753
C9    C     C_3   0.957079 0.730110 0.236272 -0.079558
C10   C     C_3   0.144379 0.710969 0.205905 0.101489
C11   C     C_3   0.028925 0.816652 0.216702 -0.177920
C12   C     C_3   0.126424 0.793302 0.290490 0.086087
C13   C     C_3   0.216522 0.796967 0.185680 -0.197511
C14   C     C_3   0.310498 0.773154 0.260102 0.537099
C15   C     C_1   0.151467 0.664857 0.158867 -0.038428
C16   C     C_1   0.116897 0.839221 0.337623 -0.052515
H3    H     H_    0.285847 0.833792 0.134644 0.113762
H4    H     H_    0.940156 0.869847 0.190936 0.138903
H5    H     H_    0.809901 0.711817 0.226216 0.141699
H6    H     H_    0.376192 0.535859 0.693891 0.124153
C17   C     C_R   0.033531 0.771109 0.877058 -0.298014
C18   C     C_R   0.976464 0.845073 0.875569 0.534456
C19   C     C_R   0.961337 0.908088 0.810285 0.173136
C20   C     C_R   0.009140 0.897741 0.747070 -0.296866
C21   C     C_R   0.069250 0.823758 0.747429 0.033062
C22   C     C_R   0.082332 0.759326 0.813826 0.018169
C23   C     C_R   0.114526 0.813348 0.682912 -0.156392
C24   C     C_R   0.170461 0.737605 0.685012 -0.029659
C25   C     C_R   0.199111 0.675287 0.752253 0.015784
C26   C     C_R   0.147639 0.685141 0.816267 -0.117280
C27   C     C_R   0.193063 0.720494 0.621973 0.449820
C28   C     C_R   0.275007 0.649300 0.625885 -0.190086
C29   C     C_R   0.317074 0.591366 0.691399 -0.209645
C30   C     C_R   0.274110 0.602895 0.753928 -0.152262
H7    H     H_    0.039371 0.723270 0.928432 0.126143
H8    H     H_    0.997235 0.948456 0.697880 0.131895
H9    H     H_    0.298047 0.637694 0.577649 0.122605
H10   H     H_    0.301041 0.554245 0.803478 0.124878
H11   H     H_    0.781469 0.347984 0.434097 0.141302
C31   C     C_R   0.520961 0.099343 0.245827 0.383332
C32   C     C_R   0.471391 0.094119 0.180089 -0.300369
C33   C     C_R   0.491566 0.159121 0.116123 0.469165
C34   C     C_R   0.548697 0.231288 0.119061 -0.202207
C35   C     C_R   0.590129 0.240755 0.184384 -0.076590
C36   C     C_R   0.576620 0.173826 0.249392 -0.015934
C37   C     C_R   0.642898 0.316343 0.184712 -0.131560
C38   C     C_R   0.678696 0.326548 0.250663 0.077704
C39   C     C_R   0.670279 0.259063 0.315578 0.010783
C40   C     C_R   0.619807 0.183380 0.315145 -0.156066
C41   C     C_R   0.719447 0.402088 0.255030 0.174969
C42   C     C_R   0.756921 0.408214 0.321160 -0.164580
C43   C     C_R   0.752855 0.342144 0.383388 -0.135151
C44   C     C_R   0.709098 0.268697 0.381021 -0.139556
H12   H     H_    0.414279 0.038766 0.179681 0.142640
H13   H     H_    0.558448 0.280357 0.068567 0.125947
H14   H     H_    0.788195 0.465311 0.324189 0.116660
H15   H     H_    0.704738 0.219648 0.431623 0.101701
O11   O     O_R   0.770540 0.084530 0.414050 -0.547491
O12   O     O_R   0.445710 0.065660 0.555720 -0.539706
O13   O     O_R   0.270420 0.915650 0.586190 -0.537083
C45   C     C_R   0.615210 0.079540 0.576445 0.704652
O14   O     O_R   0.441140 0.093540 0.412470 -0.524449
O15   O     O_R   0.265820 0.943740 0.441930 -0.507650
C46   C     C_R   0.609741 0.115241 0.384222 0.796644
O16   O     O_R   0.775150 0.056440 0.558310 -0.543809
O17   O     O_3   0.602370 0.950960 0.510050 -0.370978
V3    V     V_3+5 0.329450 0.009140 0.498150 1.491632
O18   O     O_R   0.935790 0.934280 0.444060 -0.558063
C47   C     C_R   0.103424 0.921661 0.422493 0.812863
O19   O     O_R   0.940370 0.906390 0.587310 -0.540309
C48   C     C_R   0.108606 0.882504 0.614336 0.789744
V4    V     V_3+5 0.828810 0.990710 0.501460 1.423961
O20   O     O_3   0.105780 0.049100 0.489960 -0.376230
C49   C     C_3   0.768398 0.306946 0.729024 -0.250798
C50   C     C_3   0.592325 0.295717 0.685615 0.445462
H16   H     H_    0.876615 0.355589 0.711045 0.137301
C51   C     C_1   0.625422 0.124584 0.622290 -0.183539
C52   C     C_1   0.638517 0.373786 0.879342 -0.166058
C53   C     C_3   0.809704 0.216857 0.752986 -0.204141
C54   C     C_3   0.633788 0.207046 0.708796 0.042629
C55   C     C_3   0.677292 0.199717 0.819361 -0.162273
C56   C     C_3   0.634462 0.289157 0.794653 0.054796
C57   C     C_3   0.504455 0.190831 0.773972 0.186551
C58   C     C_3   0.461948 0.278635 0.750527 0.163786
C59   C     C_1   0.630615 0.161817 0.661189 0.025902
C60   C     C_1   0.634860 0.335373 0.841423 0.020481
H17   H     H_    0.711345 0.159633 0.874589 0.138703
H18   H     H_    0.953134 0.190568 0.753885 0.178946
N1    N     N_3   0.897885 0.983146 0.808466 -0.634185
H19   H     H_    0.005430 0.025062 0.784370 0.236635
H20   H     H_    0.775131 0.998396 0.776111 0.224258
O21   O     O_3   0.122678 0.769881 0.556811 -0.573452
C61   C     C_3   0.936936 0.742042 0.547669 -0.275211
H21   H     H_    0.836897 0.743140 0.590093 0.145883
H22   H     H_    0.941676 0.681651 0.546232 0.126745
H23   H     H_    0.876640 0.781006 0.495873 0.156797
O22   O     O_3   0.496345 0.032613 0.306781 -0.557674
C62   C     C_3   0.636325 0.976558 0.308796 -0.205068
H24   H     H_    0.784556 0.002237 0.303349 0.112595
H25   H     H_    0.608955 0.951114 0.267257 0.161280
H26   H     H_    0.627550 0.927212 0.361232 0.169137
O23   O     O_3   0.440923 0.157310 0.049808 -0.544121
C63   C     C_3   0.500131 0.087162 0.042103 -0.229401
H27   H     H_    0.394807 0.038549 0.067289 0.135909
H28   H     H_    0.647961 0.069836 0.063485 0.130143
H29   H     H_    0.502812 0.097309 0.984418 0.160113
N2    N     N_3   0.718784 0.473807 0.193564 -0.668213
H30   H     H_    0.852169 0.502055 0.190952 0.228123
H31   H     H_    0.613122 0.510479 0.200592 0.220836
O24   O     O_3   0.539951 0.341613 0.614756 -0.547109
C64   C     C_3   0.571836 0.422134 0.601958 -0.266813
H32   H     H_    0.728487 0.436290 0.598099 0.138193
H33   H     H_    0.504686 0.440077 0.643356 0.117098
H34   H     H_    0.505338 0.457538 0.549983 0.162372
N3    N     N_3   0.271043 0.310598 0.749802 -0.649038
H35   H     H_    0.197373 0.305528 0.706272 0.244277
H36   H     H_    0.287270 0.370855 0.739473 0.213219
N4    N     N_3   0.358830 0.128371 0.797746 -0.668853
H37   H     H_    0.297224 0.130586 0.844014 0.245740
H38   H     H_    0.430117 0.074613 0.812572 0.229288
O25   O     O_3   0.497190 0.800160 0.268712 -0.562979
C65   C     C_3   0.563995 0.758444 0.338516 -0.310834
H39   H     H_    0.595822 0.696351 0.346043 0.136629
H40   H     H_    0.461046 0.760407 0.379666 0.149179
H41   H     H_    0.700292 0.786502 0.346694 0.167891
O26   O     O_3   0.921294 0.854812 0.937478 -0.539186
C66   C     C_3   0.086984 0.855533 0.978213 -0.222584
H42   H     H_    0.191626 0.902246 0.947222 0.137888
H43   H     H_    0.157017 0.796926 0.998595 0.126452
H44   H     H_    0.042975 0.869019 0.025164 0.163213

loop_
_geom_bond_atom_site_label_1
_geom_bond_atom_site_label_2
_ccdc_geom_bond_type
C32   C33   A    
C49   C56   S    
C53   C54   S    
C14   O25   S    
C61   H22   S    
C23   C24   A    
C55   C56   S    
C10   C13   S    
C1    O6    A    
H6    C29   S    
C62   H25   S    
C57   C58   S    
O25   C65   S    
C21   C23   A    
C27   C28   A    
C33   C34   A    
C19   C20   A    
C39   C44   A    
C6    C10   S    
C5    C12   S    
C4    C7    S    
C18   C19   A    
O19   V4    S    
C63   H28   S    
O5    C3    A    
C20   C21   A    
O21   C61   S    
O15   C47   A    
C35   C37   A    
C41   N2    S    
C5    H2    S    
O23   C63   S    
C6    H1    S    
C50   C54   S    
C10   C15   S    
O17   V4    S    
C28   C29   A    
O8    V2    S    
O22   C62   S    
N4    H37   S    
C9    H5    S    
C56   C58   S    
C17   H7    S    
C64   H34   S    
O11   C46   A    
C61   H21   S    
O1    V2    S    
C25   C30   A    
C22   C26   A    
C45   C51   S    
C11   H4    S    
C43   C44   A    
C53   C55   S    
O9    C4    A    
O12   C45   A    
C65   H41   S    
O12   V3    S    
C62   H24   S    
C32   H12   S    
C31   C36   A    
V2    O10   S    
C13   H3    S    
C62   H26   S    
C6    C14   S    
O26   C66   S    
C65   H40   S    
C66   H44   S    
C21   C22   A    
C19   N1    S    
C49   C53   S    
V4    O20   S    
O17   V3    S    
C54   C57   S    
C35   C36   A    
O18   V4    S    
C7    C15   T    
C28   H9    S    
O18   C47   A    
C37   C38   A    
C24   C27   A    
C53   H18   S    
C38   C41   A    
O2    C1    A    
C25   C26   A    
C39   C40   A    
C29   C30   A    
O15   V3    S    
C9    C10   S    
C1    C37   S    
C5    C6    S    
C33   O23   S    
N1    H20   S    
C5    C9    S    
O19   C48   A    
H11   C43   S    
C18   O26   S    
N2    H30   S    
V3    O20   S    
O3    C4    A    
C49   H16   S    
C12   C16   S    
O6    V2    S    
O9    V2    S    
C64   H32   S    
C61   H23   S    
C63   H29   S    
C24   C25   A    
O13   V3    S    
O2    V1    S    
N1    H19   S    
C27   O21   S    
C52   C60   T    
O4    C2    A    
N3    H35   S    
O7    V1    S    
C31   C32   A    
C8    C16   T    
O1    C2    A    
C12   C14   S    
C57   N4    S    
O14   C46   A    
C65   H39   S    
O14   V3    S    
O5    V1    S    
O11   V4    S    
O8    C3    A    
C55   C57   S    
C20   H8    S    
C50   O24   S    
C11   C13   S    
C23   C48   S    
C36   C40   A    
C50   C58   S    
C51   C59   T    
C41   C42   A    
C66   H43   S    
C17   C22   A    
C11   C12   S    
O4    V1    S    
C3    C26   S    
O3    V1    S    
V1    O10   S    
C63   H27   S    
C8    C47   S    
C34   C35   A    
C54   C59   S    
C2    C52   S    
C56   C60   S    
C58   N3    S    
C31   O22   S    
C44   H15   S    
C9    C11   S    
O13   C48   A    
O7    V2    S    
C38   C39   A    
N2    H31   S    
C30   H10   S    
C49   C50   S    
N4    H38   S    
C42   C43   A    
C13   C14   S    
C64   H33   S    
C17   C18   A    
C34   H13   S    
C42   H14   S    
C66   H42   S    
C45   O16   A    
O16   V4    S    
C55   H17   S    
O24   C64   S    
N3    H36   S    
C40   C46   S    
