data_str_m3_o4_o10_f0_pcu.sym.64
_audit_creation_date              2012-12-10T20:25:46-0500
_audit_creation_method            fapswitch 2.2
_symmetry_space_group_name_H-M    P1
_symmetry_Int_Tables_number       1
_space_group_crystal_system       triclinic
_cell_length_a                    8.551769
_cell_length_b                    10.744065
_cell_length_c                    9.896617
_cell_angle_alpha                 89.046322
_cell_angle_beta                  97.469025
_cell_angle_gamma                 90.948563
_cell_volume                      901.373605672

loop_
_atom_site_label
_atom_site_type_symbol
_atom_type_description
_atom_site_fract_x
_atom_site_fract_y
_atom_site_fract_z
_atom_type_partial_charge
C1    C     C_R   0.498254 0.260281 0.500610 0.922850
C2    C     C_R   0.394658 0.427551 0.918602 0.221732
C3    C     C_3   0.219621 0.437443 0.895063 -0.484097
C4    C     C_R   0.201917 0.504420 0.465227 1.023693
C5    C     C_3   0.220343 0.433529 0.048244 -0.476953
C6    C     C_R   0.500687 0.739964 0.498544 0.942124
C7    C     C_R   0.797841 0.509823 0.534121 0.844734
C8    C     C_2   0.037130 0.501585 0.448784 -0.339875
C9    C     C_2   0.958602 0.544866 0.545850 -0.199120
C10   C     C_R   0.553493 0.061862 0.619467 0.035134
C11   C     C_R   0.506159 0.128627 0.500115 -0.117519
C12   C     C_R   0.486560 0.939303 0.370134 0.523187
C13   C     C_R   0.480120 0.067961 0.374896 -0.315967
C14   C     C_2   0.016616 0.642760 0.646045 0.388826
C15   C     C_3   0.544941 0.911907 0.152920 -0.330649
C16   C     C_3   0.283848 0.097755 0.873015 -0.292736
C17   C     C_2   0.737501 0.638454 0.162902 0.387817
C18   C     C_R   0.513337 0.872269 0.494982 -0.164177
C19   C     C_R   0.558945 0.934917 0.616406 -0.034217
C20   C     C_3   0.502457 0.919594 0.752379 -0.490059
C21   C     C_3   0.493096 0.060911 0.755211 0.393205
C22   C     C_R   0.395406 0.426642 0.061006 0.161064
C23   C     C_R   0.614236 0.562948 0.082105 0.012356
C24   C     C_R   0.613430 0.561678 0.938183 -0.118078
H1    H     H_    0.980983 0.445547 0.364823 0.153837
H2    H     H_    0.577393 0.106818 0.835256 0.059417
H3    H     H_    0.955658 0.656863 0.734067 0.074524
H4    H     H_    0.525505 0.845663 0.067477 0.189864
H5    H     H_    0.670896 0.905704 0.198108 0.164841
H6    H     H_    0.520240 0.006366 0.109147 0.147532
H7    H     H_    0.355626 0.160328 0.945858 0.140057
H8    H     H_    0.285033 0.000964 0.914677 0.181998
H9    H     H_    0.160007 0.129262 0.862483 0.187328
H10   H     H_    0.720141 0.673923 0.260754 0.141526
H11   H     H_    0.701001 0.614371 0.890589 0.176246
H12   H     H_    0.182187 0.528711 0.849802 0.226524
H13   H     H_    0.161202 0.355291 0.842585 0.207816
H14   H     H_    0.178907 0.521263 0.088893 0.259795
H15   H     H_    0.166371 0.346858 0.085623 0.192568
H16   H     H_    0.444641 0.119487 0.281248 0.176758
H17   H     H_    0.386211 0.870611 0.746457 0.262657
H18   H     H_    0.595499 0.881352 0.830124 0.154415
N1    N     N_R   0.498950 0.499140 0.142680 -0.144260
N2    N     N_R   0.498950 0.499180 0.857030 -0.124821
O1    O     O_R   0.500020 0.316790 0.614690 -0.596988
O2    O     O_3   0.441000 0.879170 0.247934 -0.574689
O3    O     O_3   0.336168 0.103200 0.743623 -0.565573
O4    O     O_2   0.861074 0.664766 0.118895 -0.610474
O5    O     O_R   0.500000 0.316760 0.385350 -0.638029
O6    O     O_R   0.271760 0.500010 0.587850 -0.586627
O7    O     O_R   0.271740 0.499970 0.358500 -0.624156
O8    O     O_R   0.500000 0.683240 0.614650 -0.608906
O9    O     O_R   0.499980 0.683210 0.385310 -0.602910
O10   O     O_R   0.728260 0.500030 0.641500 -0.640250
O11   O     O_R   0.728240 0.499990 0.412150 -0.641681
O12   O     O_2   0.126091 0.712803 0.627767 -0.561441
Zn1   Zn    Zn3+2 0.500010 0.500020 0.653130 0.972647
Zn2   Zn    Zn3+2 0.499990 0.499980 0.346870 0.957178

loop_
_geom_bond_atom_site_label_1
_geom_bond_atom_site_label_2
_ccdc_geom_bond_type
C2    C22   A    
C20   H18   S    
O9    Zn2   S    
C15   H5    S    
C14   H3    S    
C16   H8    S    
C10   C19   A    
C14   O12   D    
C19   C20   S    
C7    O10   A    
C17   O4    D    
C7    O11   A    
N2    Zn1   S    
C9    C14   S    
O1    Zn1   S    
C2    C3    S    
C17   H10   S    
O7    Zn2   S    
C5    H14   S    
C12   C13   A    
C16   H7    S    
C8    H1    S    
C11   C13   A    
C1    O1    A    
C15   H4    S    
C17   C23   S    
C3    H12   S    
C24   N2    A    
C16   O3    S    
C21   H2    S    
C20   H17   S    
C5    H15   S    
C10   C21   S    
C16   H9    S    
C6    C18   S    
C6    O9    A    
C24   H11   S    
C10   C11   A    
C5    C22   S    
C23   C24   A    
C3    C5    S    
C23   N1    A    
C20   C21   S    
C3    H13   S    
C15   H6    S    
C12   O2    S    
C18   C19   A    
O8    Zn1   S    
O11   Zn2   S    
C12   C18   A    
C4    C8    S    
C7    C9    S    
N1    Zn2   S    
C13   H16   S    
C4    O7    A    
C15   O2    S    
C6    O8    A    
O6    Zn1   S    
C1    O5    A    
C2    N2    A    
O5    Zn2   S    
C22   N1    A    
C4    O6    A    
C8    C9    D    
C21   O3    S    
O10   Zn1   S    
C1    C11   S    
