data_str_m3_o10_o29_f0_pcu.sym.113
_audit_creation_date              2012-12-10T16:59:12-0500
_audit_creation_method            fapswitch 2.2
_symmetry_space_group_name_H-M    P1
_symmetry_Int_Tables_number       1
_space_group_crystal_system       triclinic
_cell_length_a                    7.740989
_cell_length_b                    8.557181
_cell_length_c                    27.713217
_cell_angle_alpha                 90.946578
_cell_angle_beta                  86.191451
_cell_angle_gamma                 93.677122
_cell_volume                      1827.78882305

loop_
_atom_site_label
_atom_site_type_symbol
_atom_type_description
_atom_site_fract_x
_atom_site_fract_y
_atom_site_fract_z
_atom_type_partial_charge
C1    C     C_R   0.545882 0.794828 0.498735 0.975875
C2    C     C_R   0.516573 0.644932 0.127787 -0.022088
C3    C     C_R   0.509783 0.498096 0.646432 -0.038516
C4    C     C_R   0.490217 0.501903 0.353568 -0.038516
C5    C     C_R   0.534990 0.643547 0.025508 0.047820
C6    C     C_R   0.465010 0.356452 0.974492 0.047820
C7    C     C_R   0.453859 0.358850 0.025775 0.047817
C8    C     C_R   0.546141 0.641149 0.974225 0.047817
C9    C     C_R   0.489707 0.502240 0.050922 0.072026
C10   C     C_R   0.510293 0.497758 0.949078 0.072025
C11   C     C_R   0.567169 0.783077 0.052569 -0.226403
C12   C     C_R   0.454118 0.205172 0.501265 0.975875
C13   C     C_R   0.432831 0.216921 0.947431 -0.226403
C14   C     C_R   0.558365 0.783279 0.102635 -0.140144
C15   C     C_R   0.441634 0.216720 0.897365 -0.140144
C16   C     C_R   0.502901 0.499736 0.593921 0.874115
C17   C     C_R   0.497099 0.500264 0.406079 0.874116
C18   C     C_R   0.592797 0.777662 0.946905 -0.226616
C19   C     C_R   0.407203 0.222337 0.053095 -0.226616
C20   C     C_2   0.570144 0.958290 0.498003 -0.371723
C21   C     C_2   0.429856 0.041710 0.501997 -0.371723
C22   C     C_R   0.566999 0.630745 0.821436 0.506450
C23   C     C_R   0.519295 0.495746 0.897803 -0.049580
C24   C     C_R   0.433000 0.369254 0.178564 0.506451
C25   C     C_R   0.488756 0.356487 0.821695 0.507080
C26   C     C_R   0.511244 0.643512 0.178305 0.507080
C27   C     C_R   0.362461 0.494465 0.726128 -0.099774
C28   C     C_R   0.637538 0.505523 0.273872 -0.099775
C29   C     C_R   0.355752 0.496784 0.676222 -0.204332
C30   C     C_R   0.644247 0.503204 0.323778 -0.204331
C31   C     C_R   0.670429 0.497297 0.667232 -0.210496
C32   C     C_R   0.329571 0.502713 0.332768 -0.210497
C33   C     C_R   0.676652 0.495547 0.717201 -0.093260
C34   C     C_R   0.480705 0.504252 0.102196 -0.049581
C35   C     C_R   0.323348 0.504463 0.282799 -0.093262
C36   C     C_R   0.522701 0.493963 0.746513 0.323129
C37   C     C_R   0.477299 0.506036 0.253487 0.323132
C38   C     C_R   0.563212 0.634583 0.871950 -0.021543
C39   C     C_R   0.436788 0.365416 0.128050 -0.021543
C40   C     C_R   0.600604 0.774109 0.896843 -0.141137
C41   C     C_R   0.399396 0.225890 0.103157 -0.141137
C42   C     C_R   0.483426 0.355067 0.872213 -0.022088
H1    H     H_    0.790997 0.498570 0.645004 0.159388
H2    H     H_    0.230369 0.497063 0.661056 0.161187
H3    H     H_    0.756477 0.506396 0.250942 0.136186
H4    H     H_    0.243522 0.493584 0.749057 0.136187
H5    H     H_    0.600039 0.895438 0.036501 0.140711
H6    H     H_    0.399960 0.104561 0.963499 0.140711
H7    H     H_    0.624861 0.890410 0.962757 0.141525
H8    H     H_    0.375139 0.109589 0.037243 0.141524
H9    H     H_    0.702607 0.009421 0.494190 0.180846
H10   H     H_    0.297393 0.990579 0.505810 0.180846
H11   H     H_    0.585536 0.892992 0.121582 0.194300
H12   H     H_    0.209004 0.501449 0.354996 0.159389
H13   H     H_    0.414463 0.107007 0.878418 0.194301
H14   H     H_    0.014080 0.383217 0.463422 0.191381
H15   H     H_    0.985920 0.616783 0.536578 0.191381
H16   H     H_    0.800543 0.495349 0.733200 0.134867
H17   H     H_    0.199458 0.504669 0.266801 0.134866
H18   H     H_    0.635978 0.882056 0.877691 0.193325
H19   H     H_    0.364022 0.117943 0.122309 0.193324
H20   H     H_    0.769629 0.502917 0.338944 0.161187
N1    N     N_R   0.528449 0.493321 0.797679 -0.361748
N2    N     N_R   0.471551 0.506678 0.202320 -0.361749
N3    N     N_2   0.950320 0.457960 0.486880 -0.175755
N4    N     N_2   0.049680 0.542040 0.513120 -0.175755
O1    O     O_R   0.389250 0.738570 0.503220 -0.611088
O2    O     O_2   0.393401 0.236730 0.203822 -0.532406
O3    O     O_2   0.546143 0.777248 0.203340 -0.530952
O4    O     O_2   0.453857 0.222751 0.796660 -0.530952
O5    O     O_R   0.610750 0.261430 0.496780 -0.611088
O6    O     O_R   0.678390 0.711630 0.494810 -0.629376
O7    O     O_R   0.321610 0.288370 0.505190 -0.629376
O8    O     O_R   0.355440 0.513440 0.575450 -0.621166
O9    O     O_R   0.644560 0.486560 0.424550 -0.621166
O10   O     O_R   0.644590 0.486500 0.567040 -0.630295
O11   O     O_R   0.355410 0.513500 0.432960 -0.630295
O12   O     O_2   0.606598 0.763269 0.796178 -0.532406
Zn1   Zn    Zn3+2 0.306940 0.517990 0.505620 0.950372
Zn2   Zn    Zn3+2 0.693060 0.482010 0.494380 0.950372

loop_
_geom_bond_atom_site_label_1
_geom_bond_atom_site_label_2
_ccdc_geom_bond_type
C33   H16   S    
C40   H18   S    
C27   C29   A    
C11   H5    S    
C41   H19   S    
H15   N4    S    
C33   C36   A    
C39   C41   A    
N4    Zn1   S    
C23   C42   A    
C31   H1    S    
C16   O8    A    
C35   C37   A    
C5    C11   A    
C20   H9    S    
C30   H20   S    
C11   C14   A    
H14   N3    S    
C22   C38   A    
C24   C39   A    
C35   H17   S    
C25   N1    A    
C3    C29   A    
C26   N2    A    
C18   C40   A    
C22   N1    A    
C31   C33   A    
C36   N1    S    
O9    Zn2   S    
C2    C34   A    
C24   N2    A    
N3    Zn2   S    
C12   O7    A    
C32   H12   S    
O5    Zn2   S    
O11   Zn1   S    
C28   H3    S    
C1    O6    A    
C34   C39   A    
C32   C35   A    
O1    Zn1   S    
C22   O12   S    
C12   C21   S    
C8    C18   A    
C15   H13   S    
C5    C9    A    
C5    C8    A    
C17   O11   A    
O7    Zn1   S    
C2    C26   A    
C3    C31   A    
C4    C32   A    
C4    C17   S    
C27   H4    S    
C12   O5    A    
C7    C19   A    
O8    Zn1   S    
C13   C15   A    
C29   H2    S    
C9    C34   A    
C10   C23   A    
C37   N2    S    
C7    C9    A    
C1    C20   S    
C16   O10   A    
O10   Zn2   S    
C15   C42   A    
C25   C42   A    
C6    C10   A    
C13   H6    S    
C6    C7    A    
C27   C36   A    
C23   C38   A    
C28   C30   A    
O6    Zn2   S    
C6    C13   A    
C38   C40   A    
C19   H8    S    
C28   C37   A    
C1    O1    A    
C2    C14   A    
C24   O2    S    
C14   H11   S    
C20   C21   D    
C8    C10   A    
N3    N4    D    
C17   O9    A    
C26   O3    S    
C25   O4    S    
C21   H10   S    
C4    C30   A    
C3    C16   S    
C19   C41   A    
C18   H7    S    
