data_str_m12_o9_o22_f0_bcu.sym.35
_audit_creation_date              2012-12-11T17:45:27-0500
_audit_creation_method            fapswitch 2.2
_symmetry_space_group_name_H-M    P1
_symmetry_Int_Tables_number       1
_space_group_crystal_system       triclinic
_cell_length_a                    14.993154
_cell_length_b                    14.917118
_cell_length_c                    15.221358
_cell_angle_alpha                 110.421558
_cell_angle_beta                  108.904855
_cell_angle_gamma                 108.723415
_cell_volume                      2631.82805928

loop_
_atom_site_label
_atom_site_type_symbol
_atom_type_description
_atom_site_fract_x
_atom_site_fract_y
_atom_site_fract_z
_atom_type_partial_charge
C1    C     C_R   0.973978 0.248012 0.060835 -0.142803
C2    C     C_R   0.708973 0.193083 0.797248 0.025272
C3    C     C_R   0.775440 0.591129 0.027625 0.036539
C4    C     C_R   0.314196 0.757823 0.224127 -0.130943
C5    C     C_R   0.948436 0.410683 0.686615 -0.136178
C6    C     C_R   0.673786 0.499518 0.950902 -0.027582
C7    C     C_R   0.970327 0.505960 0.680706 0.049111
C8    C     C_R   0.703877 0.130685 0.701699 0.039524
C9    C     C_R   0.067432 0.871303 0.074158 0.069448
C10   C     C_R   0.585431 0.311946 0.156005 -0.141012
C11   C     C_R   0.677344 0.382728 0.256899 -0.138196
C12   C     C_R   0.322243 0.785632 0.325375 0.051101
C13   C     C_R   0.750645 0.348580 0.294699 0.115401
C14   C     C_R   0.729461 0.241665 0.232543 -0.217656
C15   C     C_R   0.642847 0.174345 0.126745 0.093335
C16   C     C_R   0.206912 0.407268 0.901482 -0.144925
C17   C     C_R   0.569087 0.208987 0.089568 -0.132269
C18   C     C_R   0.863305 0.433361 0.490012 -0.255816
C19   C     C_R   0.957914 0.514397 0.587078 0.072582
C20   C     C_R   0.043518 0.594992 0.590669 0.029447
C21   C     C_R   0.034199 0.587285 0.495604 -0.264316
C22   C     C_R   0.941497 0.504985 0.398406 0.068672
C23   C     C_R   0.296824 0.497064 0.927789 -0.004535
C24   C     C_R   0.853797 0.428596 0.394838 0.022612
C25   C     C_R   0.153804 0.785736 0.748970 -0.204444
C26   C     C_R   0.250338 0.870804 0.841780 -0.119522
C27   C     C_R   0.342567 0.859676 0.870618 -0.147052
C28   C     C_R   0.998409 0.591373 0.299555 -0.177200
C29   C     C_R   0.339612 0.763809 0.805549 0.088158
C30   C     C_R   0.240775 0.675628 0.716037 -0.172568
C31   C     C_R   0.146762 0.685292 0.688840 0.107511
C32   C     C_R   0.223450 0.023917 0.521396 -0.130379
C33   C     C_R   0.305300 0.006085 0.508393 -0.132416
C34   C     C_R   0.945621 0.500374 0.304201 0.080264
C35   C     C_R   0.326549 0.927802 0.527779 0.109268
C36   C     C_R   0.267388 0.870339 0.563663 -0.179430
C37   C     C_R   0.180942 0.883461 0.569430 -0.117573
C38   C     C_R   0.159020 0.960097 0.548257 -0.124155
C39   C     C_R   0.516641 0.994409 0.616426 -0.236180
C40   C     C_R   0.297747 0.589457 0.992799 -0.140201
C41   C     C_R   0.614710 0.019925 0.616776 0.062030
C42   C     C_R   0.617106 0.951087 0.526890 0.028179
C43   C     C_R   0.519405 0.867075 0.434682 -0.252069
C44   C     C_R   0.420741 0.854319 0.430023 0.075165
C45   C     C_R   0.686899 0.408108 0.933131 -0.169672
C46   C     C_R   0.420195 0.917522 0.524085 0.009322
C47   C     C_R   0.737485 0.013428 0.455984 -0.204735
C48   C     C_R   0.842780 0.066257 0.474266 -0.132939
C49   C     C_R   0.928204 0.073471 0.554633 -0.111715
C50   C     C_R   0.908371 0.027790 0.616750 -0.139242
C51   C     C_R   0.804071 0.978166 0.601525 -0.148455
C52   C     C_R   0.913500 0.408714 0.211282 -0.130258
C53   C     C_R   0.718584 0.973809 0.523181 0.127833
C54   C     C_3   0.470040 0.384933 0.839469 -0.407136
C55   C     C_3   0.364998 0.386326 0.829562 -0.414477
C56   C     C_R   0.030054 0.594424 0.782700 -0.117122
C57   C     C_3   0.567991 0.513950 0.040368 -0.398106
C58   C     C_3   0.558294 0.587024 0.910920 -0.397530
C59   C     C_3   0.569945 0.496796 0.934693 0.406152
C60   C     C_3   0.392547 0.495148 0.923508 0.398614
C61   C     C_3   0.463285 0.509636 0.032550 -0.403741
C62   C     C_3   0.455974 0.589305 0.909850 -0.400114
C63   C     C_R   0.154921 0.038486 0.792485 -0.178261
C64   C     C_R   0.218868 0.747295 0.310974 -0.122173
C65   C     C_R   0.118919 0.042121 0.867276 0.030973
C66   C     C_R   0.188444 0.126073 0.976046 0.083985
C67   C     C_R   0.791474 0.197952 0.699923 -0.164583
C68   C     C_R   0.291331 0.205326 0.007847 -0.184801
C69   C     C_R   0.325420 0.200612 0.932023 -0.168077
C70   C     C_R   0.257849 0.117180 0.824846 -0.111468
C71   C     C_R   0.170580 0.040897 0.081478 -0.213206
C72   C     C_R   0.102123 0.988883 0.112806 0.051517
C73   C     C_R   0.054147 0.044821 0.159690 0.036317
C74   C     C_R   0.067741 0.142005 0.161327 -0.243329
C75   C     C_R   0.100192 0.167007 0.092641 0.051946
C76   C     C_R   0.067927 0.251980 0.972428 -0.147041
C77   C     C_R   0.159396 0.119830 0.057808 0.038603
C78   C     C_R   0.008975 0.806451 0.102310 -0.165299
C79   C     C_R   0.865612 0.957784 0.133534 0.004298
C80   C     C_R   0.796797 0.918585 0.171696 0.074288
C81   C     C_R   0.840534 0.919277 0.268627 -0.177531
C82   C     C_R   0.952007 0.966228 0.331147 -0.146933
C83   C     C_R   0.021039 0.010718 0.296763 -0.196116
C84   C     C_R   0.978698 0.001703 0.195831 0.054722
C85   C     C_R   0.052207 0.222719 0.045603 0.062005
C86   C     C_R   0.093857 0.805802 0.007851 -0.136772
H1    H     H_    0.939419 0.234361 0.109864 0.086498
H2    H     H_    0.082946 0.795876 0.726507 0.116630
H3    H     H_    0.254154 0.945579 0.891862 0.140748
H4    H     H_    0.237571 0.600592 0.666768 0.111692
H5    H     H_    0.094103 0.972370 0.555834 0.095443
H6    H     H_    0.175756 0.322254 0.844695 0.098895
H7    H     H_    0.210913 0.088180 0.512248 0.101895
H8    H     H_    0.354201 0.055264 0.486386 0.111600
H9    H     H_    0.285845 0.812968 0.583166 0.121510
H10   H     H_    0.131473 0.835291 0.591318 0.122195
H11   H     H_    0.511591 0.046707 0.682516 0.148696
H12   H     H_    0.053056 0.678617 0.808193 0.116865
H13   H     H_    0.520852 0.817094 0.364214 0.123398
H14   H     H_    0.858418 0.103511 0.427487 0.129722
H15   H     H_    0.023075 0.675458 0.353505 0.112103
H16   H     H_    0.470050 0.316221 0.852402 0.147808
H17   H     H_    0.314464 0.314137 0.829921 0.162903
H18   H     H_    0.576969 0.449670 0.057123 0.153953
H19   H     H_    0.419182 0.440916 0.042007 0.162196
H20   H     H_    0.627664 0.669745 0.970785 0.176826
H21   H     H_    0.553089 0.570009 0.831670 0.154542
H22   H     H_    0.480226 0.670375 0.975496 0.157209
H23   H     H_    0.999312 0.834975 0.171444 0.124898
H24   H     H_    0.636008 0.594292 0.110483 0.169647
H25   H     H_    0.482675 0.586844 0.100668 0.153691
H26   H     H_    0.103588 0.973034 0.709837 0.108286
H27   H     H_    0.345387 0.268904 0.091443 0.120971
H28   H     H_    0.404796 0.260826 0.955958 0.116785
H29   H     H_    0.216772 0.006663 0.054884 0.119276
H30   H     H_    0.865714 0.324143 0.185030 0.099379
H31   H     H_    0.788103 0.883067 0.295651 0.135696
H32   H     H_    0.984608 0.967089 0.405881 0.130725
H33   H     H_    0.107302 0.046820 0.345237 0.125061
H34   H     H_    0.151690 0.832451 0.982395 0.098096
H35   H     H_    0.625745 0.322849 0.882128 0.111362
H36   H     H_    0.819494 0.178513 0.643433 0.144079
H37   H     H_    0.701798 0.100252 0.866941 0.100947
H38   H     H_    0.694537 0.212245 0.930154 0.105310
H39   H     H_    0.813728 0.744128 0.061772 0.119094
H40   H     H_    0.856579 0.729396 0.172325 0.114086
H41   H     H_    0.905681 0.326958 0.621032 0.104005
H42   H     H_    0.379089 0.774960 0.205226 0.091472
H43   H     H_    0.579174 0.045403 0.977072 0.088143
H44   H     H_    0.708750 0.093981 0.058323 0.088597
H45   H     H_    0.500240 0.157021 0.009100 0.113654
H46   H     H_    0.102557 0.644187 0.497557 0.132494
H47   H     H_    0.416151 0.926234 0.943060 0.108820
H48   H     H_    0.452364 0.751284 0.765728 0.102272
H49   H     H_    0.502069 0.826340 0.898769 0.103940
H50   H     H_    0.672928 0.012729 0.396632 0.120630
H51   H     H_    0.009906 0.115554 0.569646 0.101506
H52   H     H_    0.974505 0.035608 0.680172 0.116870
H53   H     H_    0.791242 0.949829 0.655189 0.105488
H54   H     H_    0.471411 0.368414 0.762893 0.156902
H55   H     H_    0.318134 0.378076 0.750916 0.154417
H56   H     H_    0.529238 0.339282 0.129031 0.105381
H57   H     H_    0.403497 0.578942 0.832118 0.168113
H58   H     H_    0.353295 0.674123 0.023522 0.090235
H59   H     H_    0.285856 0.113709 0.767242 0.135216
H60   H     H_    0.975309 0.900209 0.753255 0.087850
H61   H     H_    0.967184 0.996784 0.843151 0.104864
H62   H     H_    0.034236 0.185500 0.200884 0.126986
H63   H     H_    0.847816 0.025768 0.039068 0.099312
H64   H     H_    0.843848 0.903445 0.982346 0.112731
H65   H     H_    0.668147 0.938165 0.112969 0.115158
H66   H     H_    0.642192 0.838562 0.143159 0.083815
H67   H     H_    0.692290 0.464701 0.304915 0.110339
H68   H     H_    0.192937 0.744012 0.367788 0.120131
H69   H     H_    0.123157 0.247969 0.942902 0.123839
H70   H     H_    0.786727 0.215503 0.261695 0.113241
H71   H     H_    0.797399 0.373603 0.488532 0.135092
N1    N     N_R   0.947080 0.293830 0.002870 -0.043382
N2    N     N_R   0.153670 0.443180 0.946090 -0.035884
N3    N     N_R   0.002360 0.556820 0.208890 -0.039329
N4    N     N_R   0.210070 0.556820 0.002870 -0.034339
N5    N     N_R   0.945960 0.443180 0.152110 -0.039333
N6    N     N_R   0.151710 0.706170 0.208890 -0.042535
N7    N     N_R   0.004320 0.293830 0.946090 -0.039900
N8    N     N_R   0.789930 0.443180 0.997130 -0.042157
N9    N     N_3   0.667341 0.148407 0.853943 -0.236483
N10   N     N_3   0.793279 0.696189 0.095374 -0.233503
N11   N     N_3   0.634442 0.074527 0.056566 -0.232806
N12   N     N_R   0.054040 0.556820 0.847890 -0.040343
N13   N     N_3   0.436219 0.755457 0.828479 -0.232136
N14   N     N_3   0.014153 0.958985 0.834812 -0.217097
N15   N     N_3   0.818916 0.947518 0.029704 -0.222053
N16   N     N_3   0.682284 0.873138 0.108800 -0.223516
N17   N     N_R   0.848290 0.293830 0.791110 -0.047120
N18   N     N_R   0.995680 0.706170 0.053910 -0.042841
N19   N     N_R   0.052920 0.706170 0.997130 -0.042017
N20   N     N_R   0.791050 0.293830 0.847890 -0.051081
N21   N     N_R   0.846330 0.556820 0.053910 -0.049269
N22   N     N_R   0.997640 0.443180 0.791110 -0.039087
N23   N     N_R   0.208950 0.706170 0.152110 -0.039552
Ni1   Ni    Ni4+2 0.869690 0.369690 0.000000 0.200388
Ni2   Ni    Ni4+2 0.130310 0.630310 0.000000 0.217032
Ni3   Ni    Ni4+2 0.000970 0.369690 0.869780 0.214355
Ni4   Ni    Ni4+2 0.999030 0.630310 0.130220 0.207818

loop_
_geom_bond_atom_site_label_1
_geom_bond_atom_site_label_2
_ccdc_geom_bond_type
C25   C31   A    
C66   C68   A    
C63   C65   A    
C58   C62   S    
C55   H55   S    
C6    C45   A    
C49   H51   S    
C47   H50   S    
C27   C29   A    
H63   N15   S    
C41   C42   A    
C35   C36   A    
C9    C72   S    
C56   H12   S    
C62   H57   S    
C30   H4    S    
C3    C6    A    
C33   H8    S    
C81   C82   A    
C3    N10   S    
C39   C41   A    
C26   H3    S    
N19   Ni2   S    
C26   C27   A    
C29   C30   A    
C65   N14   S    
C18   C24   A    
C74   H62   S    
C36   C37   A    
H39   N10   S    
C3    N21   A    
C43   H13   S    
C80   N16   S    
C58   H21   S    
C12   C64   A    
C42   C53   S    
C30   C31   A    
C56   N12   A    
C57   C59   S    
C17   H45   S    
C67   N17   A    
C23   C40   A    
C64   H68   S    
C28   N3    A    
C60   C62   S    
C18   C19   A    
C10   H56   S    
H49   N13   S    
C83   H33   S    
C1    H1    S    
C66   C77   S    
C5    N22   A    
H37   N9    S    
C28   H15   S    
C75   C85   S    
C54   H54   S    
C47   C48   A    
C44   C46   A    
C68   C69   A    
N4    Ni2   S    
N2    N4    A    
C2    N20   A    
C32   C38   A    
C29   N13   S    
C4    C12   A    
C61   H19   S    
C2    N9    S    
C73   C84   S    
N1    N7    A    
C68   H27   S    
C47   C53   A    
C55   C60   S    
C32   H7    S    
C28   C34   A    
C21   C22   A    
C16   N2    A    
N8    N21   A    
C7    C56   A    
C4    N23   A    
C64   N6    A    
C48   H14   S    
N23   Ni2   S    
N22   Ni3   S    
C54   C59   S    
C52   H30   S    
C73   C74   A    
C1    C85   A    
C23   C60   S    
C22   C34   S    
H64   N15   S    
C69   H28   S    
C74   C75   A    
C4    H42   S    
C27   H47   S    
C8    C41   S    
H61   N14   S    
N5    Ni1   S    
H40   N10   S    
C5    C7    A    
C72   C73   A    
C45   H35   S    
C25   C26   A    
C38   H5    S    
C82   C83   A    
C25   H2    S    
C37   H10   S    
C60   C61   S    
C58   H20   S    
N3    N5    A    
C79   N15   S    
C43   C44   A    
C21   H46   S    
C37   C38   A    
C9    C86   A    
C83   C84   A    
C63   C70   A    
C5    H41   S    
C50   C51   A    
C71   H29   S    
C70   H59   S    
C55   H17   S    
C75   C77   A    
N17   N20   A    
C39   C46   A    
H38   N9    S    
H66   N16   S    
C81   H31   S    
C48   C49   A    
C16   H6    S    
C16   C23   A    
C7    C19   S    
C40   H58   S    
C18   H71   S    
C78   N18   A    
C22   C24   A    
C15   N11   S    
C76   N7    A    
C42   C43   A    
C82   H32   S    
C61   H25   S    
C67   H36   S    
C71   C77   A    
C15   C17   A    
C57   H18   S    
C54   C55   S    
C1    N1    A    
H43   N11   S    
C14   H70   S    
N6    Ni4   S    
C63   H26   S    
C6    C59   S    
C54   H16   S    
C2    C8    A    
C80   C81   A    
N17   Ni3   S    
H65   N16   S    
C50   H52   S    
C57   H24   S    
C57   C61   S    
C76   H69   S    
C34   C52   A    
N8    Ni1   S    
C32   C33   A    
C19   C20   A    
N2    Ni3   S    
C58   C59   S    
C40   N4    A    
C12   C44   S    
N18   N19   A    
C11   C13   A    
C36   H9    S    
C79   C84   A    
N20   Ni1   S    
C33   C35   A    
N12   N22   A    
C78   H23   S    
C86   N19   A    
C9    C78   A    
C65   C66   A    
C69   C70   A    
N1    Ni1   S    
H60   N14   S    
N12   Ni2   S    
C39   H11   S    
C10   C11   A    
C11   H67   S    
C79   C80   A    
H44   N11   S    
C71   C72   A    
C62   H22   S    
C20   C21   A    
C13   C24   S    
C8    C67   A    
C49   C50   A    
H48   N13   S    
N6    N23   A    
N7    Ni3   S    
C14   C15   A    
C86   H34   S    
C10   C17   A    
C51   C53   A    
C13   C14   A    
C35   C46   S    
C45   N8    A    
C76   C85   A    
N3    Ni4   S    
N21   Ni4   S    
C52   N5    A    
N18   Ni4   S    
C20   C31   S    
C51   H53   S    
