data_str_m12_o4_o10_f0_bcu.sym.45
_audit_creation_date              2012-12-11T16:45:48-0500
_audit_creation_method            fapswitch 2.2
_symmetry_space_group_name_H-M    P1
_symmetry_Int_Tables_number       1
_space_group_crystal_system       monoclinic
_cell_length_a                    19.733981
_cell_length_b                    17.04493
_cell_length_c                    15.292052
_cell_angle_alpha                 90.0
_cell_angle_beta                  52.764199
_cell_angle_gamma                 90.0
_cell_volume                      4095.16754122

loop_
_atom_site_label
_atom_site_type_symbol
_atom_type_description
_atom_site_fract_x
_atom_site_fract_y
_atom_site_fract_z
_atom_type_partial_charge
C1    C     C_R   0.841178 0.674953 0.043501 -0.075870
C2    C     C_R   0.145930 0.309050 0.076882 0.084477
C3    C     C_R   0.354070 0.809050 0.923118 0.084477
C4    C     C_R   0.645930 0.809050 0.076882 0.084478
C5    C     C_R   0.887249 0.684781 0.305831 0.075329
C6    C     C_R   0.112751 0.684781 0.694169 0.075329
C7    C     C_R   0.387249 0.184781 0.305831 0.075329
C8    C     C_R   0.612751 0.184781 0.694169 0.075329
C9    C     C_R   0.856851 0.717387 0.484624 0.157213
C10   C     C_R   0.143149 0.717387 0.515376 0.157212
C11   C     C_R   0.356851 0.217387 0.484624 0.157212
C12   C     C_R   0.158822 0.674953 0.956499 -0.075873
C13   C     C_R   0.643149 0.217387 0.515376 0.157213
C14   C     C_R   0.870858 0.742155 0.387557 0.025177
C15   C     C_R   0.129142 0.742155 0.612443 0.025177
C16   C     C_R   0.370858 0.242155 0.387557 0.025177
C17   C     C_R   0.629142 0.242155 0.612443 0.025177
C18   C     C_R   0.355366 0.321453 0.379573 -0.186553
C19   C     C_R   0.644633 0.321453 0.620427 -0.186553
C20   C     C_R   0.855367 0.821453 0.379573 -0.186553
C21   C     C_R   0.144633 0.821453 0.620427 -0.186552
C22   C     C_R   0.306618 0.367238 0.474826 -0.179719
C23   C     C_R   0.341178 0.174953 0.043501 -0.075871
C24   C     C_R   0.693382 0.367238 0.525174 -0.179719
C25   C     C_R   0.806618 0.867238 0.474826 -0.179719
C26   C     C_R   0.193382 0.867238 0.525174 -0.179719
C27   C     C_R   0.272584 0.333074 0.577659 0.031223
C28   C     C_R   0.727415 0.333074 0.422341 0.031222
C29   C     C_R   0.772584 0.833074 0.577659 0.031222
C30   C     C_R   0.227415 0.833074 0.422341 0.031222
C31   C     C_R   0.807864 0.762024 0.578748 0.167433
C32   C     C_R   0.192135 0.762023 0.421252 0.167433
C33   C     C_R   0.307864 0.262024 0.578748 0.167433
C34   C     C_R   0.658822 0.174953 0.956499 -0.075872
C35   C     C_R   0.692135 0.262024 0.421252 0.167433
C36   C     C_3   0.768113 0.690530 0.649819 -0.520749
C37   C     C_3   0.231887 0.690530 0.350181 -0.520750
C38   C     C_3   0.268113 0.190530 0.649819 -0.520749
C39   C     C_3   0.731886 0.190530 0.350181 -0.520749
C40   C     C_R   0.848731 0.330793 0.218642 -0.140822
C41   C     C_R   0.151269 0.330793 0.781358 -0.140822
C42   C     C_R   0.348731 0.830793 0.218642 -0.140822
C43   C     C_R   0.651269 0.830793 0.781358 -0.140823
C44   C     C_3   0.822163 0.641971 0.547021 -0.509741
C45   C     C_R   0.807163 0.362182 0.322983 0.072808
C46   C     C_3   0.177837 0.641971 0.452979 -0.509739
C47   C     C_3   0.322163 0.141971 0.547021 -0.509739
C48   C     C_3   0.677837 0.141971 0.452979 -0.509740
C49   C     C_2   0.782434 0.185812 0.963054 -0.271602
C50   C     C_2   0.217566 0.185812 0.036946 -0.271602
C51   C     C_2   0.282434 0.685812 0.963053 -0.271602
C52   C     C_2   0.717567 0.685812 0.036946 -0.271603
C53   C     C_2   0.322146 0.745958 0.891458 -0.122530
C54   C     C_2   0.677853 0.745958 0.108542 -0.122532
C55   C     C_2   0.822146 0.245958 0.891458 -0.122530
C56   C     C_R   0.192837 0.362182 0.677017 0.072808
C57   C     C_2   0.177853 0.245958 0.108542 -0.122531
C58   C     C_R   0.869217 0.387494 0.892049 -0.112115
C59   C     C_R   0.130783 0.387494 0.107951 -0.112116
C60   C     C_R   0.369217 0.887494 0.892049 -0.112116
C61   C     C_R   0.630783 0.887494 0.107951 -0.112115
C62   C     C_R   0.907789 0.607343 0.303369 -0.159772
C63   C     C_R   0.092211 0.607343 0.696631 -0.159773
C64   C     C_R   0.407789 0.107343 0.303369 -0.159772
C65   C     C_R   0.592211 0.107343 0.696631 -0.159772
C66   C     C_R   0.880266 0.297895 0.987410 -0.144984
C67   C     C_R   0.307163 0.862182 0.322983 0.072808
C68   C     C_R   0.119734 0.297895 0.012590 -0.144984
C69   C     C_R   0.380265 0.797895 0.987410 -0.144984
C70   C     C_R   0.619734 0.797895 0.012590 -0.144984
C71   C     C_R   0.896368 0.698329 0.209879 -0.105820
C72   C     C_R   0.103631 0.698329 0.790121 -0.105821
C73   C     C_R   0.396368 0.198329 0.209879 -0.105820
C74   C     C_R   0.603631 0.198329 0.790121 -0.105820
C75   C     C_R   0.858531 0.421649 0.316290 -0.101954
C76   C     C_R   0.141469 0.421649 0.683710 -0.101954
C77   C     C_R   0.358531 0.921649 0.316290 -0.101954
C78   C     C_R   0.692837 0.862182 0.677017 0.072808
C79   C     C_R   0.641469 0.921648 0.683710 -0.101954
C80   C     C_R   0.830676 0.580998 0.949285 -0.166566
C81   C     C_R   0.169324 0.580998 0.050715 -0.166564
C82   C     C_R   0.330676 0.080998 0.949285 -0.166564
C83   C     C_R   0.669324 0.080998 0.050715 -0.166565
C84   C     C_R   0.789404 0.644990 0.018832 0.205586
C85   C     C_R   0.210596 0.644990 0.981167 0.205583
C86   C     C_R   0.289404 0.144990 0.018832 0.205584
C87   C     C_R   0.710596 0.144990 0.981167 0.205583
C88   C     C_2   0.332734 0.748936 0.786174 1.009842
C89   C     C_R   0.854070 0.309050 0.923118 0.084477
C90   C     C_2   0.667264 0.748935 0.213826 1.009840
C91   C     C_2   0.832735 0.248936 0.786174 1.009842
C92   C     C_2   0.167265 0.248936 0.213826 1.009842
H1    H     H_    0.833073 0.728171 0.087179 0.088727
H2    H     H_    0.214263 0.683192 0.293986 0.191493
H3    H     H_    0.285737 0.183192 0.706014 0.191493
H4    H     H_    0.714263 0.183192 0.293986 0.191493
H5    H     H_    0.699142 0.684258 0.688847 0.202971
H6    H     H_    0.300858 0.684258 0.311153 0.202971
H7    H     H_    0.199142 0.184258 0.688847 0.202971
H8    H     H_    0.800857 0.184258 0.311153 0.202971
H9    H     H_    0.871339 0.607157 0.543667 0.194722
H10   H     H_    0.128661 0.607157 0.456332 0.194721
H11   H     H_    0.371339 0.107157 0.543667 0.194721
H12   H     H_    0.166927 0.728171 0.912820 0.088728
H13   H     H_    0.628661 0.107157 0.456332 0.194721
H14   H     H_    0.783500 0.608605 0.528928 0.201515
H15   H     H_    0.216500 0.608605 0.471072 0.201515
H16   H     H_    0.283500 0.108605 0.528928 0.201515
H17   H     H_    0.716500 0.108605 0.471072 0.201515
H18   H     H_    0.786388 0.178248 0.030262 0.129490
H19   H     H_    0.213612 0.178248 0.969737 0.129490
H20   H     H_    0.286388 0.678248 0.030262 0.129490
H21   H     H_    0.713613 0.678248 0.969737 0.129491
H22   H     H_    0.825648 0.286728 0.192367 0.110097
H23   H     H_    0.333073 0.228171 0.087179 0.088727
H24   H     H_    0.174352 0.286728 0.807633 0.110097
H25   H     H_    0.325648 0.786728 0.192367 0.110098
H26   H     H_    0.674352 0.786728 0.807633 0.110097
H27   H     H_    0.865959 0.415340 0.831274 0.146502
H28   H     H_    0.134041 0.415340 0.168726 0.146501
H29   H     H_    0.365959 0.915340 0.831274 0.146502
H30   H     H_    0.634041 0.915340 0.168726 0.146501
H31   H     H_    0.922827 0.579724 0.353227 0.106702
H32   H     H_    0.077173 0.579724 0.646773 0.106702
H33   H     H_    0.422827 0.079724 0.353227 0.106702
H34   H     H_    0.666927 0.228171 0.912820 0.088728
H35   H     H_    0.577173 0.079724 0.646773 0.106702
H36   H     H_    0.891761 0.242350 0.010518 0.095162
H37   H     H_    0.108239 0.242349 0.989482 0.095162
H38   H     H_    0.391761 0.742349 0.010518 0.095162
H39   H     H_    0.608239 0.742349 0.989482 0.095163
H40   H     H_    0.897814 0.754780 0.176658 0.084800
H41   H     H_    0.102185 0.754780 0.823342 0.084801
H42   H     H_    0.397814 0.254780 0.176658 0.084801
H43   H     H_    0.602186 0.254780 0.823342 0.084801
H44   H     H_    0.846042 0.458933 0.381620 0.094943
H45   H     H_    0.286820 0.424840 0.468704 0.129759
H46   H     H_    0.153958 0.458933 0.618380 0.094943
H47   H     H_    0.346042 0.958933 0.381620 0.094943
H48   H     H_    0.653958 0.958933 0.618380 0.094943
H49   H     H_    0.810343 0.546953 0.909298 0.106360
H50   H     H_    0.189657 0.546953 0.090701 0.106359
H51   H     H_    0.310343 0.046953 0.909299 0.106359
H52   H     H_    0.689657 0.046953 0.090701 0.106359
H53   H     H_    0.371034 0.345427 0.303886 0.131421
H54   H     H_    0.628965 0.345427 0.696114 0.131421
H55   H     H_    0.871034 0.845427 0.303886 0.131420
H56   H     H_    0.713180 0.424840 0.531296 0.129759
H57   H     H_    0.128966 0.845427 0.696114 0.131421
H58   H     H_    0.337493 0.688859 0.668719 0.327850
H59   H     H_    0.662508 0.688858 0.331280 0.327849
H60   H     H_    0.837493 0.188859 0.668719 0.327850
H61   H     H_    0.162507 0.188859 0.331281 0.327849
H62   H     H_    0.786820 0.924840 0.468704 0.129759
H63   H     H_    0.213180 0.924840 0.531296 0.129759
H64   H     H_    0.785737 0.683192 0.706014 0.191493
N1    N     N_R   0.908660 0.628630 0.995840 -0.055514
N2    N     N_R   0.096530 0.421430 0.063580 -0.044492
N3    N     N_R   0.403470 0.921430 0.936420 -0.044492
N4    N     N_R   0.596530 0.921430 0.063580 -0.044492
N5    N     N_R   0.927500 0.575670 0.211370 -0.037459
N6    N     N_R   0.072500 0.575670 0.788630 -0.037459
N7    N     N_R   0.427500 0.075670 0.211370 -0.037459
N8    N     N_R   0.572500 0.075670 0.788630 -0.037459
N9    N     N_R   0.908660 0.365680 0.995820 -0.040232
N10   N     N_R   0.091340 0.365680 0.004180 -0.040232
N11   N     N_R   0.408660 0.865680 0.995820 -0.040232
N12   N     N_R   0.091340 0.628630 0.004160 -0.055513
N13   N     N_R   0.591340 0.865680 0.004180 -0.040232
N14   N     N_R   0.922310 0.631420 0.151980 -0.038572
N15   N     N_R   0.077690 0.631420 0.848020 -0.038572
N16   N     N_R   0.422310 0.131420 0.151980 -0.038572
N17   N     N_R   0.577690 0.131420 0.848020 -0.038572
N18   N     N_R   0.927500 0.426330 0.211360 -0.041786
N19   N     N_R   0.072500 0.426330 0.788640 -0.041786
N20   N     N_R   0.427500 0.926330 0.211360 -0.041786
N21   N     N_R   0.572500 0.926330 0.788640 -0.041786
N22   N     N_R   0.903470 0.570760 0.936440 -0.046701
N23   N     N_R   0.408660 0.128630 0.995840 -0.055513
N24   N     N_R   0.096530 0.570760 0.063560 -0.046701
N25   N     N_R   0.403470 0.070760 0.936440 -0.046701
N26   N     N_R   0.596530 0.070760 0.063560 -0.046701
N27   N     N_R   0.591340 0.128630 0.004160 -0.055513
N28   N     N_R   0.922310 0.368460 0.151950 -0.041661
N29   N     N_R   0.077690 0.368460 0.848050 -0.041661
N30   N     N_R   0.422310 0.868460 0.151950 -0.041661
N31   N     N_R   0.577690 0.868460 0.848050 -0.041661
N32   N     N_R   0.903470 0.421430 0.936420 -0.044492
Ni1   Ni    Ni4+2 0.000000 0.630300 0.000000 0.212882
Ni2   Ni    Ni4+2 0.500000 0.130300 0.000000 0.212882
Ni3   Ni    Ni4+2 1.000000 0.369700 0.000000 0.215777
Ni4   Ni    Ni4+2 0.500000 0.869700 0.000000 0.215777
Ni5   Ni    Ni4+2 0.988090 0.497570 0.863760 0.222094
Ni6   Ni    Ni4+2 0.011910 0.497570 0.136240 0.222094
Ni7   Ni    Ni4+2 0.488090 0.997570 0.863760 0.222094
Ni8   Ni    Ni4+2 0.511910 0.997570 0.136240 0.222094
O1    O     O_2   0.345935 0.811203 0.738701 -0.675215
O2    O     O_R   0.329782 0.679499 0.739739 -0.787592
O3    O     O_2   0.654060 0.811202 0.261303 -0.675213
O4    O     O_R   0.670219 0.679497 0.260259 -0.787592
O5    O     O_2   0.845935 0.311203 0.738700 -0.675215
O6    O     O_R   0.829782 0.179499 0.739740 -0.787592
O7    O     O_2   0.154063 0.311203 0.261301 -0.675215
O8    O     O_R   0.170218 0.179498 0.260260 -0.787592

loop_
_geom_bond_atom_site_label_1
_geom_bond_atom_site_label_2
_ccdc_geom_bond_type
C88   O1    D    
C63   N6    A    
C83   C87   A    
C21   C26   A    
C51   H20   S    
C56   C76   A    
C57   C92   S    
C49   C87   S    
C11   C47   S    
C67   C77   A    
C60   N3    A    
C80   C84   A    
C18   H53   S    
C51   C85   S    
C4    C70   A    
C63   H32   S    
C39   H8    S    
N8    Ni7   S    
C7    C73   A    
C52   H21   S    
C27   C33   A    
C43   C78   A    
C6    C72   A    
N11   Ni4   S    
C46   H10   S    
C82   N25   A    
N2    N10   A    
N2    Ni6   S    
C12   C85   A    
C65   H35   S    
C22   H45   S    
C76   H46   S    
C3    C69   A    
C70   N13   A    
C12   H12   S    
C2    C68   A    
C10   C15   A    
C83   H52   S    
C59   N2    A    
C62   N5    A    
C90   O4    S    
C20   C25   A    
N17   Ni2   S    
N15   Ni1   S    
N10   Ni3   S    
C88   O2    S    
C52   C84   S    
N26   N27   A    
C37   H6    S    
C55   C91   S    
C17   C19   A    
C71   H40   S    
C77   H47   S    
C40   H22   S    
N6    N15   A    
C28   C35   A    
C66   H36   S    
C69   H38   S    
C23   C86   A    
C38   H3    S    
C10   C46   S    
N4    N13   A    
C79   N21   A    
C36   H5    S    
C45   C75   A    
C21   H57   S    
C23   N23   A    
C30   C67   S    
C92   O8    S    
C34   N27   A    
N4    Ni8   S    
H61   O8    S    
C3    C60   A    
C42   N30   A    
C48   H17   S    
C6    C15   S    
C8    C65   A    
C18   C22   A    
C46   H15   S    
C75   N18   A    
H60   O6    S    
C26   H63   S    
C60   H29   S    
C64   N7    A    
N25   Ni7   S    
C62   H31   S    
C52   C54   D    
N29   Ni3   S    
C66   C89   A    
N1    Ni1   S    
C59   H28   S    
C25   C29   A    
C40   C45   A    
C7    C64   A    
N22   Ni5   S    
C70   H39   S    
C28   C45   S    
C2    C57   S    
C19   H54   S    
C47   H11   S    
C29   C78   S    
C58   N32   A    
N9    N32   A    
C72   N15   A    
C14   C20   A    
C11   C33   A    
C74   N17   A    
C24   H56   S    
C61   N4    A    
N18   N28   A    
C9    C31   A    
C78   C79   A    
C82   H51   S    
C90   O3    D    
N16   Ni2   S    
C82   C86   A    
C4    C61   A    
N12   Ni1   S    
C83   N26   A    
C61   H30   S    
C1    C84   A    
C80   N22   A    
C6    C63   A    
N3    Ni7   S    
C9    C14   A    
C69   N11   A    
C41   C56   A    
N28   Ni3   S    
N19   N29   A    
C11   C16   A    
C48   H13   S    
N14   Ni1   S    
C43   N31   A    
C34   H34   S    
C49   C55   D    
C74   H43   S    
C8    C74   A    
N31   Ni4   S    
C20   H55   S    
C41   N29   A    
N8    N17   A    
C16   C18   A    
C32   C37   S    
N20   Ni8   S    
C73   N16   A    
N20   N30   A    
N7    N16   A    
N6    Ni5   S    
C5    C14   S    
C91   O5    D    
C92   O7    D    
C54   C90   S    
N5    N14   A    
C1    H1    S    
C7    C16   S    
C2    C59   A    
N32   Ni5   S    
C26   C30   A    
C77   N20   A    
H58   O2    S    
C37   H2    S    
C42   C67   A    
C36   C44   S    
N26   Ni8   S    
C41   H24   S    
N27   Ni2   S    
N24   Ni6   S    
C36   H64   S    
C47   H16   S    
C5    C62   A    
C81   H50   S    
C9    C44   S    
N21   Ni7   S    
C66   N9    A    
C4    C54   S    
C25   H62   S    
C75   H44   S    
C50   C57   D    
H59   O4    S    
C76   N19   A    
C24   C28   A    
C81   N24   A    
C38   H7    S    
C12   N12   A    
C13   C48   S    
C44   H9    S    
C42   H25   S    
C13   C35   A    
C44   H14   S    
C27   C56   S    
C8    C17   S    
N21   N31   A    
C38   C47   S    
C22   C27   A    
N1    N22   A    
C1    N1    A    
C19   C24   A    
C5    C71   A    
N12   N24   A    
C30   C32   A    
C3    C53   S    
C72   H41   S    
N23   Ni2   S    
N7    Ni8   S    
C80   H49   S    
C35   C39   S    
C65   N8    A    
C50   H19   S    
N9    Ni3   S    
N3    N11   A    
N5    Ni6   S    
C79   H48   S    
C53   C88   S    
C34   C87   A    
N30   Ni4   S    
C68   H37   S    
C55   C89   S    
C58   C89   A    
C71   N14   A    
C39   H4    S    
C91   O6    S    
C50   C86   S    
C43   H26   S    
C23   H23   S    
C13   C17   A    
N18   Ni6   S    
C10   C32   A    
C15   C21   A    
C58   H27   S    
C73   H42   S    
C29   C31   A    
C64   H33   S    
C31   C36   S    
C39   C48   S    
C33   C38   S    
N23   N25   A    
N13   Ni4   S    
C51   C53   D    
C37   C46   S    
N19   Ni5   S    
C81   C85   A    
C49   H18   S    
C40   N28   A    
C68   N10   A    
