data_str_m3_o14_o17_f0_pcu.sym.43
_audit_creation_date              2012-12-10T17:43:39-0500
_audit_creation_method            fapswitch 2.2
_symmetry_space_group_name_H-M    P1
_symmetry_Int_Tables_number       1
_space_group_crystal_system       triclinic
_cell_length_a                    14.914077
_cell_length_b                    10.64305
_cell_length_c                    9.949793
_cell_angle_alpha                 91.179761
_cell_angle_beta                  91.844402
_cell_angle_gamma                 93.068547
_cell_volume                      1575.86780202

loop_
_atom_site_label
_atom_site_type_symbol
_atom_type_description
_atom_site_fract_x
_atom_site_fract_y
_atom_site_fract_z
_atom_type_partial_charge
C1    C     C_R   0.514052 0.262419 0.500367 0.948162
C2    C     C_R   0.181243 0.381707 0.513818 -0.042391
C3    C     C_R   0.231501 0.495105 0.493988 -0.156522
C4    C     C_R   0.327339 0.496362 0.497912 0.969810
C5    C     C_R   0.191370 0.609432 0.472538 -0.123840
C6    C     C_R   0.575035 0.140667 0.753995 -0.145871
C7    C     C_R   0.578056 0.078726 0.874682 -0.158742
C8    C     C_R   0.585714 0.950092 0.874146 -0.224431
C9    C     C_R   0.590661 0.885117 0.751378 0.010663
C10   C     C_R   0.561662 0.941684 0.630051 0.102989
C11   C     C_R   0.558559 0.073744 0.629655 0.055282
C12   C     C_R   0.911430 0.616189 0.480157 0.071482
C13   C     C_R   0.543939 0.133537 0.504236 -0.173258
C14   C     C_R   0.557198 0.065260 0.383543 0.102616
C15   C     C_R   0.547337 0.935396 0.386018 -0.224779
C16   C     C_R   0.511507 0.740321 0.502347 0.891875
C17   C     C_R   0.539838 0.873843 0.507757 -0.137019
C18   C     C_R   0.369487 0.352632 0.131436 -0.145845
C19   C     C_R   0.303565 0.281410 0.057471 -0.179203
C20   C     C_R   0.303071 0.281463 0.918238 -0.169300
C21   C     C_R   0.368387 0.352810 0.852494 -0.116632
C22   C     C_R   0.432027 0.433414 0.923486 0.125413
C23   C     C_R   0.943052 0.281071 0.572539 0.004642
C24   C     C_R   0.432979 0.431911 0.068051 0.155985
C25   C     C_R   0.569034 0.552721 0.077006 -0.116158
C26   C     C_R   0.574728 0.535683 0.935724 -0.050521
C27   C     C_R   0.672699 0.503005 0.501594 0.862043
C28   C     C_R   0.818052 0.612699 0.458399 -0.014438
C29   C     C_R   0.768263 0.507672 0.504915 -0.076141
C30   C     C_R   0.808847 0.402102 0.551661 -0.290172
C31   C     C_R   0.901270 0.394115 0.544924 0.055461
C32   C     C_R   0.953380 0.504321 0.513252 0.044793
C33   C     C_2   0.772575 0.713984 0.384532 0.445228
C34   C     C_R   0.036007 0.279499 0.564143 -0.216233
C35   C     C_2   0.654352 0.784551 0.752201 0.463987
C36   C     C_2   0.665228 0.507554 0.890889 0.398687
C37   C     C_2   0.891875 0.161408 0.603302 0.396787
C38   C     C_2   0.222871 0.256866 0.501103 0.301801
C39   C     C_2   0.245702 0.713582 0.412310 0.426180
C40   C     C_3   0.103300 0.859436 0.538539 -0.417502
C41   C     C_3   0.150043 0.853574 0.678116 -0.337166
C42   C     C_3   0.199838 0.978318 0.718034 -0.841202
C43   C     C_3   0.589436 0.124587 0.255019 -0.397994
C44   C     C_3   0.681059 0.195601 0.280389 -0.337343
C45   C     C_R   0.088366 0.387076 0.529055 0.011163
C46   C     C_3   0.714252 0.260130 0.154527 -0.799788
C47   C     C_R   0.047163 0.502835 0.512136 0.018934
C48   C     C_R   0.098944 0.616661 0.491734 0.083255
C49   C     C_R   0.055900 0.733110 0.497115 0.106481
C50   C     C_R   0.962721 0.730130 0.480589 -0.138852
H1    H     H_    0.591342 0.240057 0.762720 0.150691
H2    H     H_    0.766287 0.325174 0.587207 0.109099
H3    H     H_    0.067003 0.192647 0.586359 0.161893
H4    H     H_    0.929593 0.818179 0.478845 0.197996
H5    H     H_    0.701897 0.728167 0.396741 0.099355
H6    H     H_    0.675335 0.747182 0.847097 0.114616
H7    H     H_    0.673059 0.430138 0.821370 0.101671
H8    H     H_    0.821997 0.144737 0.571848 0.059028
H9    H     H_    0.183187 0.174987 0.462236 0.086162
H10   H     H_    0.308850 0.748267 0.460280 0.047799
H11   H     H_    0.251922 0.002565 0.644143 0.276800
H12   H     H_    0.584377 0.132736 0.967609 0.143618
H13   H     H_    0.152100 0.054574 0.723394 0.265377
H14   H     H_    0.233368 0.970342 0.818530 0.259241
H15   H     H_    0.098978 0.830707 0.754144 0.257047
H16   H     H_    0.199278 0.779040 0.679846 0.217333
H17   H     H_    0.150485 0.893959 0.462655 0.233556
H18   H     H_    0.053963 0.933897 0.544359 0.228179
H19   H     H_    0.663088 0.322766 0.114518 0.254222
H20   H     H_    0.777004 0.317841 0.179812 0.268295
H21   H     H_    0.728860 0.188883 0.076303 0.255805
H22   H     H_    0.676445 0.267847 0.361016 0.221058
H23   H     H_    0.602098 0.905718 0.968249 0.134281
H24   H     H_    0.731395 0.128668 0.314484 0.228705
H25   H     H_    0.598788 0.050024 0.177818 0.186687
H26   H     H_    0.539001 0.185441 0.210179 0.222917
H27   H     H_    0.545896 0.882074 0.291904 0.170281
H28   H     H_    0.626793 0.590297 0.136413 0.193536
H29   H     H_    0.372598 0.337512 0.237124 0.217106
H30   H     H_    0.255329 0.221211 0.108418 0.165049
H31   H     H_    0.254650 0.221030 0.860801 0.168960
H32   H     H_    0.372001 0.334357 0.747538 0.248223
N1    N     N_R   0.499150 0.498800 0.142780 -0.140363
N2    N     N_R   0.499120 0.498720 0.857170 -0.169367
O1    O     O_R   0.500000 0.316780 0.614690 -0.645723
O2    O     O_2   0.691749 0.753609 0.650828 -0.625057
O3    O     O_2   0.732933 0.559856 0.943048 -0.571467
O4    O     O_2   0.928199 0.077865 0.663196 -0.575923
O5    O     O_2   0.301685 0.243442 0.530624 -0.611752
O6    O     O_2   0.222170 0.756219 0.304559 -0.550546
O7    O     O_R   0.499990 0.316750 0.385360 -0.631853
O8    O     O_R   0.367850 0.499980 0.614680 -0.622627
O9    O     O_R   0.367840 0.499960 0.385350 -0.622842
O10   O     O_R   0.500010 0.683250 0.614640 -0.613052
O11   O     O_R   0.500000 0.683220 0.385310 -0.622512
O12   O     O_R   0.632160 0.500040 0.614650 -0.627047
O13   O     O_R   0.632150 0.500020 0.385320 -0.652255
O14   O     O_2   0.812463 0.778549 0.303202 -0.571682
Zn1   Zn    Zn3+2 0.500010 0.500020 0.653130 0.942617
Zn2   Zn    Zn3+2 0.499990 0.499980 0.346870 0.944491

loop_
_geom_bond_atom_site_label_1
_geom_bond_atom_site_label_2
_ccdc_geom_bond_type
C33   H5    S    
C27   C29   S    
C41   C42   S    
C37   O4    D    
C19   C20   A    
C7    C8    A    
C15   H27   S    
C38   O5    D    
C50   H4    S    
C12   C28   A    
C18   C24   A    
C28   C29   A    
C24   N1    A    
C18   C19   A    
C30   C31   A    
C35   O2    D    
C10   C17   A    
C40   C49   S    
O12   Zn1   S    
C33   O14   D    
C46   H19   S    
C27   O13   A    
C31   C32   A    
C18   H29   S    
C40   H17   S    
C13   C14   A    
O7    Zn2   S    
C9    C10   A    
C39   O6    D    
C37   H8    S    
C1    O7    A    
C20   H31   S    
C12   C32   A    
C43   H25   S    
C27   O12   A    
C44   C46   S    
C45   C47   A    
C36   O3    D    
C1    O1    A    
C5    C48   A    
C25   H28   S    
C36   H7    S    
C10   C11   A    
C6    C11   A    
O11   Zn2   S    
C8    C9    A    
C41   H15   S    
C25   C26   A    
C23   C37   S    
C38   H9    S    
C22   N2    A    
C43   C44   S    
C7    H12   S    
C29   C30   A    
O1    Zn1   S    
C2    C38   S    
C47   C48   A    
C42   H11   S    
C23   C34   A    
C34   C45   A    
C20   C21   A    
C44   H24   S    
O9    Zn2   S    
C46   H21   S    
C41   H16   S    
C26   C36   S    
C48   C49   A    
C28   C33   S    
N1    Zn2   S    
C5    C39   S    
C6    H1    S    
C32   C47   A    
C22   C24   A    
C1    C13   S    
C3    C4    S    
C42   H14   S    
O13   Zn2   S    
C9    C35   S    
C43   H26   S    
C15   C17   A    
C30   H2    S    
C40   C41   S    
C16   O11   A    
C26   N2    A    
C35   H6    S    
N2    Zn1   S    
C3    C5    A    
C12   C50   A    
C6    C7    A    
C16   O10   A    
C2    C3    A    
C11   C13   A    
C16   C17   S    
O10   Zn1   S    
C39   H10   S    
C8    H23   S    
C44   H22   S    
C19   H30   S    
C46   H20   S    
C2    C45   A    
C4    O9    A    
C21   H32   S    
C34   H3    S    
C49   C50   A    
C40   H18   S    
C25   N1    A    
C14   C15   A    
C21   C22   A    
C42   H13   S    
O8    Zn1   S    
C23   C31   A    
C14   C43   S    
C4    O8    A    
