data_str_m2_o18_o24_f0_pcu.sym.42
_audit_creation_date              2012-10-26T20:58:19-0400
_audit_creation_method            fapswitch 2.2
_symmetry_space_group_name_H-M    P1
_symmetry_Int_Tables_number       1
_space_group_crystal_system       triclinic
_cell_length_a                    10.650274
_cell_length_b                    14.885701
_cell_length_c                    14.917519
_cell_angle_alpha                 63.776048
_cell_angle_beta                  104.92736
_cell_angle_gamma                 102.331066
_cell_volume                      2036.34693452

loop_
_atom_site_label
_atom_site_type_symbol
_atom_type_description
_atom_site_fract_x
_atom_site_fract_y
_atom_site_fract_z
_atom_type_partial_charge
C1    C     C_R   0.480107 0.120264 0.312237 0.534492
C2    C     C_R   0.518498 0.527759 0.932586 0.049747
C3    C     C_R   0.419446 0.496227 0.866219 -0.096747
C4    C     C_R   0.710491 0.476731 0.061613 -0.090024
C5    C     C_R   0.367657 0.395187 0.894187 0.031887
C6    C     C_R   0.764147 0.576322 0.037403 0.028087
C7    C     C_R   0.742388 0.293245 0.652642 -0.005022
C8    C     C_R   0.266972 0.708009 0.342532 -0.019123
C9    C     C_R   0.689822 0.204089 0.638045 0.130271
C10   C     C_R   0.313864 0.796640 0.359320 0.118382
C11   C     C_R   0.517473 0.287747 0.508062 0.124434
C12   C     C_R   0.524310 0.879930 0.687173 0.529600
C13   C     C_R   0.482235 0.711835 0.493967 0.126373
C14   C     C_R   0.551713 0.372068 0.535335 0.018237
C15   C     C_R   0.449486 0.626909 0.468351 -0.043206
C16   C     C_R   0.260180 0.000366 0.499907 0.561467
C17   C     C_R   0.740089 0.999272 0.500604 0.553574
C18   C     C_R   0.675515 0.379235 0.596643 0.024641
C19   C     C_R   0.329089 0.620711 0.403892 0.021093
C20   C     C_R   0.472271 0.452493 0.499477 0.065365
C21   C     C_R   0.527830 0.545375 0.507579 0.015997
C22   C     C_R   0.661978 0.556168 0.547465 -0.130579
C23   C     C_R   0.540670 0.285491 0.167196 0.007922
C24   C     C_R   0.337810 0.442034 0.459752 -0.081236
C25   C     C_R   0.732353 0.473768 0.595967 -0.089801
C26   C     C_R   0.270285 0.525948 0.406261 -0.072331
C27   C     C_3   0.016774 0.033536 0.405125 0.001027
C28   C     C_3   0.984187 0.965478 0.595595 0.023421
C29   C     C_3   0.966484 0.094078 0.447278 -0.129115
C30   C     C_3   0.034273 0.905100 0.553148 -0.087915
C31   C     C_3   0.877125 0.998638 0.500648 0.013714
C32   C     C_3   0.123452 0.000557 0.500124 0.023730
C33   C     C_3   0.925464 0.938582 0.456896 -0.144922
C34   C     C_R   0.497721 0.712796 0.832593 -0.004372
C35   C     C_3   0.075217 0.060551 0.543700 -0.151830
C36   C     C_R   0.465930 0.189606 0.202623 -0.013704
C37   C     C_R   0.566164 0.809789 0.792613 -0.008900
C38   C     C_R   0.335824 0.228617 0.033475 -0.065053
C39   C     C_R   0.753236 0.755164 0.926136 -0.051510
C40   C     C_R   0.366421 0.162590 0.134462 -0.100717
C41   C     C_R   0.691557 0.830468 0.841931 -0.087422
C42   C     C_2   0.567067 0.697987 0.593627 0.275939
C43   C     C_2   0.422202 0.296215 0.413480 0.288682
C44   C     C_2   0.253593 0.890163 0.289232 0.227497
C45   C     C_R   0.512686 0.353523 0.061666 0.033320
C46   C     C_2   0.746928 0.110017 0.709040 0.243975
C47   C     C_2   0.866292 0.294136 0.727209 0.254150
C48   C     C_2   0.157980 0.708483 0.257461 0.298504
C49   C     C_2   0.037733 0.071820 0.298375 0.210853
C50   C     C_2   0.967693 0.926677 0.703514 0.246614
C51   C     C_2   0.272467 0.368880 0.814710 0.228525
C52   C     C_2   0.887469 0.594241 0.103079 0.278542
C53   C     C_2   0.352200 0.703859 0.804699 0.230196
C54   C     C_2   0.638523 0.314464 0.243959 0.255926
C55   C     C_R   0.567939 0.631316 0.907783 0.045075
C56   C     C_R   0.405787 0.324798 0.995556 0.050244
C57   C     C_R   0.694724 0.654690 0.959114 0.048756
C58   C     C_R   0.580801 0.452130 0.020584 0.044207
Cu1   Cu    Cu3+1 0.465750 0.918270 0.475680 0.982515
Cu2   Cu    Cu3+1 0.534250 0.081730 0.524320 0.959689
H1    H     H_    0.862511 0.889181 0.420832 0.141529
H2    H     H_    0.073272 0.746322 0.241687 0.163196
H3    H     H_    0.715169 0.628471 0.540579 0.159771
H4    H     H_    0.283830 0.369724 0.466905 0.100063
H5    H     H_    0.986568 0.031934 0.251289 0.121978
H6    H     H_    0.953152 0.977979 0.732478 0.090166
H7    H     H_    0.213404 0.425255 0.754108 0.115642
H8    H     H_    0.963221 0.544852 0.129932 0.147875
H9    H     H_    0.303648 0.755350 0.731989 0.113002
H10   H     H_    0.709928 0.263858 0.296880 0.093510
H11   H     H_    0.746320 0.903541 0.811485 0.154577
H12   H     H_    0.138198 0.109957 0.579753 0.131394
H13   H     H_    0.304866 0.092258 0.161002 0.193869
H14   H     H_    0.251137 0.204941 0.987574 0.199107
H15   H     H_    0.852313 0.775528 0.958418 0.200391
H16   H     H_    0.387314 0.549169 0.789230 0.090296
H17   H     H_    0.771117 0.418338 0.114847 0.105197
H18   H     H_    0.833968 0.486495 0.628871 0.164081
H19   H     H_    0.169761 0.515229 0.369698 0.147324
H20   H     H_    0.936516 0.171188 0.403287 0.127719
H21   H     H_    0.064600 0.828066 0.596798 0.151914
H22   H     H_    0.538371 0.637214 0.661890 0.072963
H23   H     H_    0.346976 0.236011 0.410645 0.158417
H24   H     H_    0.228386 0.938529 0.316576 0.150223
H25   H     H_    0.773608 0.062340 0.681934 0.118464
H26   H     H_    0.944129 0.253110 0.734919 0.136839
N1    N     N_R   0.585750 0.204560 0.560800 -0.287231
N2    N     N_R   0.414250 0.795440 0.439200 -0.268738
O1    O     O_R   0.454850 0.022100 0.338110 -0.506492
O2    O     O_2   0.425880 0.373504 0.335965 -0.431733
O3    O     O_2   0.230559 0.914439 0.197491 -0.515370
O4    O     O_2   0.765344 0.084988 0.800769 -0.498482
O5    O     O_2   0.879803 0.336154 0.783831 -0.474776
O6    O     O_2   0.165992 0.670850 0.201422 -0.431613
O7    O     O_2   0.112835 0.147602 0.264186 -0.498886
O8    O     O_2   0.973360 0.837706 0.759901 -0.464440
O9    O     O_2   0.264696 0.287097 0.811958 -0.509609
O10   O     O_2   0.900557 0.659352 0.134425 -0.484787
O11   O     O_2   0.284757 0.642825 0.865436 -0.448691
O12   O     O_R   0.545150 0.977900 0.661890 -0.494130
O13   O     O_2   0.636834 0.392661 0.251326 -0.429618
O14   O     O_R   0.512700 0.160150 0.379180 -0.499593
O15   O     O_R   0.487300 0.839850 0.620820 -0.500796
O16   O     O_R   0.287930 0.931000 0.479440 -0.549129
O17   O     O_R   0.712070 0.069000 0.520560 -0.558608
O18   O     O_R   0.345780 0.069050 0.520520 -0.522157
O19   O     O_R   0.654220 0.930950 0.479480 -0.431453
O20   O     O_2   0.672700 0.748226 0.600642 -0.476316

loop_
_geom_bond_atom_site_label_1
_geom_bond_atom_site_label_2
_ccdc_geom_bond_type
C51   O9    D    
C38   C40   A    
C23   C45   A    
C27   C29   S    
C34   C37   A    
C43   H23   S    
C14   C18   A    
C54   O13   D    
C42   H22   S    
C53   H9    S    
C39   C41   A    
C53   O11   D    
C15   C19   A    
C10   N2    A    
C49   H5    S    
Cu1   O16   S    
C24   C26   A    
C2    C55   A    
C17   O19   A    
C11   C14   A    
C46   O4    D    
C39   C57   A    
C40   H13   S    
Cu1   O1    S    
C52   O10   D    
C12   C37   S    
C19   C26   A    
Cu1   N2    S    
C5    C56   A    
C22   H3    S    
C28   C50   S    
C16   O16   A    
C20   C24   A    
C28   C35   S    
C11   N1    A    
C22   C25   A    
C31   C33   S    
C11   C43   S    
C39   H15   S    
C52   H8    S    
C16   O18   A    
C41   H11   S    
C46   H25   S    
C9    C46   S    
C24   H4    S    
C21   C22   A    
C6    C57   A    
C18   C25   A    
Cu2   O14   S    
C13   C42   S    
Cu2   N1    S    
C45   C58   A    
C8    C19   A    
C10   C44   S    
C25   H18   S    
C43   O2    D    
C32   C35   S    
C14   C20   A    
C36   C40   A    
C45   C56   A    
C12   O15   A    
C4    C6    A    
Cu2   O12   S    
C27   C33   S    
C7    C47   S    
C8    C48   S    
Cu1   Cu2   S    
C17   O17   A    
C48   H2    S    
C54   H10   S    
C7    C18   A    
C47   O5    D    
C34   C55   A    
C51   H7    S    
C49   O7    D    
C3    H16   S    
C50   H6    S    
C44   O3    D    
C48   O6    D    
C8    C10   A    
C35   H12   S    
C13   C15   A    
C17   C31   S    
Cu2   O18   S    
C23   C54   S    
C38   H14   S    
C7    C9    A    
C1    O1    A    
C30   C33   S    
C27   C32   S    
C28   C31   S    
C3    C5    A    
C2    C58   A    
C16   C32   S    
C29   C35   S    
C26   H19   S    
C44   H24   S    
Cu1   O15   S    
C30   H21   S    
C55   C57   A    
C47   H26   S    
C4    H17   S    
C29   C31   S    
C9    N1    A    
C30   C32   S    
C50   O8    D    
C29   H20   S    
C13   N2    A    
C28   C30   S    
C2    C3    A    
C37   C41   A    
Cu1   O19   S    
C12   O12   A    
C15   C21   A    
C38   C56   A    
C20   C21   A    
C34   C53   S    
C33   H1    S    
C23   C36   A    
C4    C58   A    
C5    C51   S    
C6    C52   S    
C42   O20   D    
C1    O14   A    
Cu2   O17   S    
C27   C49   S    
C1    C36   S    
