data_str_m3_o10_o29_f0_pcu.sym.94
_audit_creation_date              2012-12-10T16:59:23-0500
_audit_creation_method            fapswitch 2.2
_symmetry_space_group_name_H-M    P1
_symmetry_Int_Tables_number       1
_space_group_crystal_system       triclinic
_cell_length_a                    7.830041
_cell_length_b                    8.546672
_cell_length_c                    27.699099
_cell_angle_alpha                 92.173492
_cell_angle_beta                  84.443899
_cell_angle_gamma                 94.111925
_cell_volume                      1839.29147444

loop_
_atom_site_label
_atom_site_type_symbol
_atom_type_description
_atom_site_fract_x
_atom_site_fract_y
_atom_site_fract_z
_atom_type_partial_charge
C1    C     C_R   0.545840 0.794584 0.498752 0.971578
C2    C     C_R   0.591510 0.644992 0.124615 -0.039783
C3    C     C_R   0.494231 0.489845 0.647135 -0.089509
C4    C     C_R   0.505768 0.510151 0.352865 -0.089511
C5    C     C_R   0.561281 0.643058 0.023586 -0.001140
C6    C     C_R   0.438707 0.356930 0.976414 -0.001140
C7    C     C_R   0.475319 0.358254 0.025739 0.052135
C8    C     C_R   0.524669 0.641734 0.974261 0.052135
C9    C     C_R   0.525884 0.502221 0.049563 0.067550
C10   C     C_R   0.474105 0.497767 0.950437 0.067550
C11   C     C_R   0.638841 0.776372 0.048172 -0.029729
C12   C     C_R   0.454160 0.205416 0.501248 0.971577
C13   C     C_R   0.361148 0.223616 0.951827 -0.029729
C14   C     C_R   0.642609 0.778671 0.098327 -0.177866
C15   C     C_R   0.357382 0.221317 0.901672 -0.177867
C16   C     C_R   0.499767 0.498556 0.594020 0.869128
C17   C     C_R   0.500233 0.501444 0.405980 0.869128
C18   C     C_R   0.524864 0.781224 0.948454 -0.186869
C19   C     C_R   0.475122 0.218764 0.051546 -0.186869
C20   C     C_2   0.569701 0.958481 0.498007 -0.357694
C21   C     C_2   0.430299 0.041519 0.501992 -0.357694
C22   C     C_R   0.477884 0.629002 0.823832 0.513014
C23   C     C_R   0.455351 0.495912 0.900034 -0.051412
C24   C     C_R   0.522108 0.370986 0.176168 0.513014
C25   C     C_R   0.407704 0.352903 0.824839 0.521973
C26   C     C_R   0.592291 0.647085 0.175160 0.521973
C27   C     C_R   0.317770 0.451187 0.723444 -0.088455
C28   C     C_R   0.682228 0.548800 0.276555 -0.088454
C29   C     C_R   0.333422 0.454062 0.673171 -0.207171
C30   C     C_R   0.666577 0.545930 0.326828 -0.207171
C31   C     C_R   0.641883 0.517186 0.672842 -0.028199
C32   C     C_R   0.358116 0.482810 0.327158 -0.028199
C33   C     C_R   0.624445 0.512964 0.723309 -0.137288
C34   C     C_R   0.544639 0.504075 0.099966 -0.051413
C35   C     C_R   0.375553 0.487028 0.276691 -0.137288
C36   C     C_R   0.462946 0.482355 0.748495 0.292520
C37   C     C_R   0.537051 0.517633 0.251505 0.292521
C38   C     C_1   0.811918 0.553905 0.649551 0.199440
C39   C     C_1   0.188080 0.446100 0.350450 0.199440
C40   C     C_1   0.003517 0.311497 0.471695 0.435066
C41   C     C_1   0.996483 0.688503 0.528305 0.435066
C42   C     C_1   0.736431 0.905272 0.023833 0.147037
C43   C     C_1   0.263556 0.094717 0.976167 0.147036
C44   C     C_R   0.482712 0.635406 0.874138 -0.023071
C45   C     C_R   0.517278 0.364582 0.125862 -0.023070
C46   C     C_R   0.510359 0.778040 0.899044 -0.134032
C47   C     C_R   0.489629 0.221948 0.100956 -0.134033
C48   C     C_R   0.408483 0.354996 0.875384 -0.039783
H1    H     H_    0.736131 0.535929 0.743474 0.142581
H2    H     H_    0.305878 0.116251 0.883401 0.195994
H3    H     H_    0.529592 0.895624 0.965793 0.152572
H4    H     H_    0.470392 0.104364 0.034207 0.152572
H5    H     H_    0.701145 0.010179 0.494191 0.190907
H6    H     H_    0.298855 0.989821 0.505809 0.190907
H7    H     H_    0.263866 0.464064 0.256527 0.142580
H8    H     H_    0.519174 0.888256 0.880581 0.194006
H9    H     H_    0.480814 0.111732 0.119419 0.194006
H10   H     H_    0.781313 0.571668 0.345326 0.185385
H11   H     H_    0.218685 0.428325 0.654673 0.185383
H12   H     H_    0.807371 0.573196 0.257017 0.150026
H13   H     H_    0.192627 0.426788 0.742982 0.150026
H14   H     H_    0.694114 0.883737 0.116598 0.195994
N1    N     N_R   0.447019 0.488157 0.800209 -0.356797
N2    N     N_1   0.186233 0.990590 0.995425 -0.175290
N3    N     N_R   0.552976 0.511830 0.199791 -0.356797
N4    N     N_2   0.950320 0.457960 0.486880 -0.158483
N5    N     N_2   0.049680 0.542040 0.513120 -0.158484
N6    N     N_1   0.949405 0.583347 0.631597 -0.205940
N7    N     N_1   0.050591 0.416665 0.368405 -0.205943
N8    N     N_1   0.044094 0.188206 0.458541 -0.245766
N9    N     N_1   0.955907 0.811794 0.541459 -0.245765
N10   N     N_1   0.813752 0.009399 0.004575 -0.175290
O1    O     O_R   0.389250 0.738570 0.503220 -0.627030
O2    O     O_2   0.494521 0.238094 0.201464 -0.526713
O3    O     O_2   0.628726 0.783164 0.199595 -0.530725
O4    O     O_2   0.371271 0.216823 0.800405 -0.530724
O5    O     O_R   0.610750 0.261430 0.496780 -0.627030
O6    O     O_R   0.678390 0.711630 0.494810 -0.630950
O7    O     O_R   0.321610 0.288370 0.505190 -0.630950
O8    O     O_R   0.355440 0.513440 0.575450 -0.615899
O9    O     O_R   0.644560 0.486560 0.424550 -0.615899
O10   O     O_R   0.644590 0.486500 0.567040 -0.624243
O11   O     O_R   0.355410 0.513500 0.432960 -0.624242
O12   O     O_2   0.505471 0.761894 0.798536 -0.526712
Zn1   Zn    Zn3+2 0.306940 0.517990 0.505620 0.969147
Zn2   Zn    Zn3+2 0.693060 0.482010 0.494380 0.969147

loop_
_geom_bond_atom_site_label_1
_geom_bond_atom_site_label_2
_ccdc_geom_bond_type
C27   C29   A    
C13   C43   S    
C41   N5    S    
C40   N8    T    
C24   C45   A    
C35   C37   A    
C5    C11   A    
C21   H6    S    
C11   C14   A    
C19   C47   A    
C15   H2    S    
C33   H1    S    
C14   H14   S    
C12   O7    A    
C33   C36   A    
C11   C42   S    
C25   N1    A    
C32   C39   S    
C3    C29   A    
C27   H13   S    
C22   N1    A    
C19   H4    S    
C22   C44   A    
C29   H11   S    
C37   N3    S    
C43   N2    T    
C31   C33   A    
C36   N1    S    
O9    Zn2   S    
C41   N9    T    
C2    C34   A    
C45   C47   A    
N4    N5    D    
C40   N4    S    
C1    O6    A    
C15   C48   A    
C18   C46   A    
C42   N10   T    
C44   C46   A    
C18   H3    S    
C28   H12   S    
N5    Zn1   S    
C35   H7    S    
C32   C35   A    
O10   Zn2   S    
C12   C21   S    
C8    C18   A    
C23   C44   A    
C16   O8    A    
C22   O12   S    
C5    C9    A    
O8    Zn1   S    
C47   H9    S    
C12   O5    A    
C16   O10   A    
C26   O3    S    
C39   N7    T    
C2    C26   A    
C34   C45   A    
C3    C31   A    
C25   C48   A    
O1    Zn1   S    
C4    C32   A    
C24   N3    A    
C4    C17   S    
O11   Zn1   S    
C38   N6    T    
O5    Zn2   S    
C7    C19   A    
C13   C15   A    
C9    C34   A    
C27   C36   A    
O7    Zn1   S    
C7    C9    A    
C1    C20   S    
C23   C48   A    
C26   N3    A    
C20   H5    S    
N4    Zn2   S    
C5    C8    A    
C6    C7    A    
C10   C23   A    
C31   C38   S    
C25   O4    S    
C1    O1    A    
C28   C30   A    
C6    C13   A    
C24   O2    S    
C28   C37   A    
C30   H10   S    
C17   O9    A    
C2    C14   A    
C6    C10   A    
C20   C21   D    
C8    C10   A    
O6    Zn2   S    
C46   H8    S    
C17   O11   A    
C4    C30   A    
C3    C16   S    
