data_str_m2_o22_o22_f0_pcu.sym.168
_audit_creation_date              2012-12-10T18:09:32-0500
_audit_creation_method            fapswitch 2.2
_symmetry_space_group_name_H-M    P1
_symmetry_Int_Tables_number       1
_space_group_crystal_system       triclinic
_cell_length_a                    16.409576
_cell_length_b                    13.95684
_cell_length_c                    9.70123
_cell_angle_alpha                 90.164796
_cell_angle_beta                  90.622839
_cell_angle_gamma                 89.767174
_cell_volume                      2221.6736915

loop_
_atom_site_label
_atom_site_type_symbol
_atom_type_description
_atom_site_fract_x
_atom_site_fract_y
_atom_site_fract_z
_atom_type_partial_charge
C1    C     C_R   0.118595 0.378894 0.500931 0.741797
C2    C     C_R   0.118489 0.621132 0.500046 0.734121
C3    C     C_R   0.618575 0.878867 0.500932 0.741782
C4    C     C_R   0.618487 0.121136 0.500044 0.734128
C5    C     C_3   0.085161 0.511887 0.082803 -0.229113
C6    C     C_3   0.085378 0.499687 0.918726 -0.205895
C7    C     C_3   0.585161 0.011889 0.082808 -0.229114
C8    C     C_3   0.585379 0.999695 0.918729 -0.205858
C9    C     C_R   0.880120 0.380049 0.499159 0.730551
C10   C     C_R   0.879566 0.618852 0.500648 0.733996
C11   C     C_R   0.380117 0.880052 0.499161 0.730550
C12   C     C_R   0.379579 0.118870 0.500649 0.733914
C13   C     C_3   0.815028 0.244765 0.623437 -0.386494
C14   C     C_3   0.810046 0.246445 0.367555 -0.399701
C15   C     C_3   0.794334 0.726402 0.652199 -0.374135
C16   C     C_3   0.825291 0.771866 0.409089 -0.403741
C17   C     C_3   0.314973 0.744842 0.623541 -0.386451
C18   C     C_3   0.310100 0.746374 0.367651 -0.399734
C19   C     C_3   0.294577 0.226736 0.652099 -0.374296
C20   C     C_3   0.325200 0.271720 0.408697 -0.403548
C21   C     C_3   0.245463 0.671757 0.622309 -0.377217
C22   C     C_3   0.236875 0.678401 0.364546 -0.370276
C23   C     C_3   0.218652 0.291449 0.653706 -0.370536
C24   C     C_3   0.258596 0.348733 0.419679 -0.392824
C25   C     C_3   0.745537 0.171657 0.622164 -0.377156
C26   C     C_3   0.736797 0.178509 0.364425 -0.370298
C27   C     C_3   0.718363 0.791040 0.653778 -0.370816
C28   C     C_3   0.758710 0.848895 0.420252 -0.392976
C29   C     C_3   0.727510 0.366477 0.502202 -0.366447
C30   C     C_3   0.729547 0.636613 0.454990 -0.390246
C31   C     C_3   0.227500 0.866476 0.502058 -0.366416
C32   C     C_3   0.229513 0.136572 0.455487 -0.390012
C33   C     C_3   0.809575 0.311575 0.497459 0.170321
C34   C     C_3   0.808840 0.686537 0.504553 0.182654
C35   C     C_3   0.309571 0.811577 0.497473 0.170279
C36   C     C_3   0.308868 0.186578 0.504554 0.182593
C37   C     C_3   0.187155 0.690295 0.498337 0.184668
C38   C     C_3   0.187074 0.309096 0.504050 0.183345
C39   C     C_3   0.687153 0.190299 0.498322 0.184670
C40   C     C_3   0.687041 0.809049 0.504059 0.183434
C41   C     C_3   0.155283 0.795274 0.500395 -0.396508
C42   C     C_3   0.159894 0.211273 0.442348 -0.400378
C43   C     C_3   0.655290 0.295282 0.500568 -0.396561
C44   C     C_3   0.659968 0.711359 0.441760 -0.400280
C45   C     C_3   0.954837 0.584745 0.082012 0.087011
C46   C     C_3   0.960220 0.587259 0.915525 0.123109
C47   C     C_3   0.971554 0.406140 0.082386 0.108365
C48   C     C_3   0.962357 0.410533 0.915490 0.056668
C49   C     C_3   0.454837 0.084748 0.082011 0.087007
C50   C     C_3   0.460217 0.087255 0.915521 0.123149
C51   C     C_3   0.471554 0.906139 0.082384 0.108360
C52   C     C_3   0.462359 0.910532 0.915490 0.056674
Cu1   Cu    Cu3+1 0.000100 0.500000 0.642410 0.868093
Cu2   Cu    Cu3+1 0.000100 0.500000 0.357590 0.876989
Cu3   Cu    Cu3+1 0.500100 0.000000 0.642410 0.868100
Cu4   Cu    Cu3+1 0.500100 0.000000 0.357590 0.876990
H1    H     H_    0.812398 0.287422 0.720192 0.190154
H2    H     H_    0.809739 0.290300 0.272020 0.173607
H3    H     H_    0.786204 0.667168 0.727313 0.160511
H4    H     H_    0.822029 0.742981 0.303628 0.203993
H5    H     H_    0.312331 0.787556 0.720243 0.190080
H6    H     H_    0.309790 0.790187 0.272077 0.173637
H7    H     H_    0.286499 0.167651 0.727473 0.160562
H8    H     H_    0.321919 0.242633 0.303333 0.203950
H9    H     H_    0.873646 0.205575 0.618044 0.151950
H10   H     H_    0.864741 0.200086 0.372515 0.164645
H11   H     H_    0.847971 0.769274 0.685276 0.147888
H12   H     H_    0.886186 0.803564 0.431242 0.140683
H13   H     H_    0.373580 0.705627 0.618234 0.152069
H14   H     H_    0.364816 0.700051 0.372689 0.164587
H15   H     H_    0.348288 0.269610 0.684829 0.147749
H16   H     H_    0.386082 0.303501 0.430691 0.140724
H17   H     H_    0.271196 0.597960 0.615073 0.145909
H18   H     H_    0.258197 0.602883 0.353475 0.149230
H19   H     H_    0.234208 0.360458 0.705366 0.156051
H20   H     H_    0.283819 0.413952 0.470596 0.149469
H21   H     H_    0.771286 0.097879 0.614718 0.145881
H22   H     H_    0.758087 0.102992 0.353163 0.149289
H23   H     H_    0.733792 0.859919 0.705907 0.156175
H24   H     H_    0.783894 0.913938 0.471700 0.149574
H25   H     H_    0.115674 0.809041 0.589614 0.143309
H26   H     H_    0.116709 0.808583 0.407213 0.146087
H27   H     H_    0.104715 0.184682 0.495620 0.141776
H28   H     H_    0.144322 0.220137 0.331578 0.172638
H29   H     H_    0.615725 0.309011 0.589848 0.143375
H30   H     H_    0.616669 0.308651 0.407459 0.146057
H31   H     H_    0.604667 0.684666 0.494566 0.141770
H32   H     H_    0.644642 0.720457 0.330937 0.172657
H33   H     H_    0.889579 0.574329 0.108173 0.095163
H34   H     H_    0.895517 0.583419 0.880366 0.065907
H35   H     H_    0.909154 0.393932 0.121789 0.124648
H36   H     H_    0.895842 0.415141 0.892422 0.100293
H37   H     H_    0.389578 0.074333 0.108171 0.095144
H38   H     H_    0.395516 0.083419 0.880359 0.065867
H39   H     H_    0.409155 0.893927 0.121788 0.124670
H40   H     H_    0.395845 0.915135 0.892418 0.100295
H41   H     H_    0.112455 0.581017 0.112021 0.135705
H42   H     H_    0.124465 0.552805 0.868528 0.175513
H43   H     H_    0.131264 0.463763 0.129083 0.129097
H44   H     H_    0.118338 0.432666 0.893961 0.122058
H45   H     H_    0.612454 0.081011 0.112061 0.135697
H46   H     H_    0.624463 0.052822 0.868538 0.175568
H47   H     H_    0.631268 0.963769 0.129082 0.129087
H48   H     H_    0.618344 0.932679 0.893959 0.122026
N1    N     N_3   0.001260 0.500000 0.143650 -0.190361
N2    N     N_3   0.001260 0.500000 0.856350 -0.184015
N3    N     N_3   0.501260 0.000000 0.143650 -0.190348
N4    N     N_3   0.501260 0.000000 0.856350 -0.183993
O1    O     O_R   0.091250 0.408820 0.620260 -0.607197
O2    O     O_R   0.091250 0.408820 0.379740 -0.590416
O3    O     O_R   0.091250 0.591180 0.620260 -0.591977
O4    O     O_R   0.091250 0.591180 0.379740 -0.606912
O5    O     O_R   0.591250 0.908820 0.620260 -0.607197
O6    O     O_R   0.591250 0.908820 0.379740 -0.590399
O7    O     O_R   0.591250 0.091180 0.620260 -0.591974
O8    O     O_R   0.591250 0.091180 0.379740 -0.606886
O9    O     O_R   0.908940 0.408800 0.620260 -0.602244
O10   O     O_R   0.908940 0.408800 0.379740 -0.577157
O11   O     O_R   0.908940 0.591200 0.620260 -0.619482
O12   O     O_R   0.908940 0.591200 0.379740 -0.596994
O13   O     O_R   0.408940 0.908800 0.620260 -0.602244
O14   O     O_R   0.408940 0.908800 0.379740 -0.577154
O15   O     O_R   0.408940 0.091200 0.620260 -0.619443
O16   O     O_R   0.408940 0.091200 0.379740 -0.597014
H49   H     H_    0.213273 0.675902 0.721808 0.171176
H50   H     H_    0.198414 0.695101 0.272336 0.161389
H51   H     H_    0.170449 0.256276 0.715063 0.154714
H52   H     H_    0.238202 0.369733 0.314125 0.158353
H53   H     H_    0.713414 0.175669 0.721738 0.171057
H54   H     H_    0.698292 0.195313 0.272305 0.161359
H55   H     H_    0.670066 0.755656 0.714672 0.154712
H56   H     H_    0.738488 0.870237 0.314751 0.158324
H57   H     H_    0.725009 0.411221 0.597187 0.147238
H58   H     H_    0.722257 0.415209 0.411967 0.147019
H59   H     H_    0.712119 0.580690 0.530361 0.151893
H60   H     H_    0.738848 0.600591 0.353822 0.151609
H61   H     H_    0.224955 0.911251 0.597008 0.147217
H62   H     H_    0.222283 0.915176 0.411782 0.147030
H63   H     H_    0.212216 0.080745 0.531091 0.151872
H64   H     H_    0.238670 0.100418 0.354375 0.151496
C53   C     C_3   0.979577 0.684851 0.149679 -0.233240
C54   C     C_3   0.922563 0.769877 0.115857 -0.968129
H65   H     H_    0.945435 0.817391 0.035076 0.252723
H66   H     H_    0.860522 0.745569 0.085769 0.241577
H67   H     H_    0.920884 0.820003 0.204217 0.232617
H68   H     H_    0.986077 0.682800 0.261092 0.231202
H69   H     H_    0.041982 0.706794 0.129330 0.179645
C55   C     C_3   0.990914 0.684339 0.847295 -0.228966
C56   C     C_3   0.072356 0.733772 0.887021 -0.903517
H70   H     H_    0.115407 0.691187 0.948922 0.226055
H71   H     H_    0.105139 0.754582 0.793896 0.225038
H72   H     H_    0.062342 0.802663 0.940909 0.232698
H73   H     H_    0.995757 0.676774 0.736776 0.242643
H74   H     H_    0.941094 0.737328 0.851947 0.143667
C57   C     C_3   0.027170 0.318260 0.132664 -0.234604
C58   C     C_3   0.984908 0.241189 0.214674 -0.927816
H75   H     H_    0.923851 0.226969 0.170098 0.252714
H76   H     H_    0.020248 0.173196 0.210023 0.218714
H77   H     H_    0.983018 0.262548 0.324352 0.265555
H78   H     H_    0.062538 0.282114 0.054002 0.153319
H79   H     H_    0.081752 0.336889 0.187514 0.204057
C59   C     C_3   0.991678 0.314324 0.840535 -0.263017
C60   C     C_3   0.945731 0.222696 0.881558 -0.963762
H80   H     H_    0.882972 0.238766 0.916455 0.252056
H81   H     H_    0.944064 0.171263 0.794818 0.227562
H82   H     H_    0.978526 0.180838 0.960800 0.267616
H83   H     H_    0.988915 0.315292 0.729269 0.245487
H84   H     H_    0.057809 0.301635 0.849169 0.147053
C61   C     C_3   0.479567 0.184866 0.149676 -0.233259
C62   C     C_3   0.422583 0.269904 0.115766 -0.968086
H85   H     H_    0.445563 0.317450 0.035108 0.252722
H86   H     H_    0.360570 0.245614 0.085473 0.241570
H87   H     H_    0.420802 0.320003 0.204138 0.232645
H88   H     H_    0.486039 0.182836 0.261093 0.231134
H89   H     H_    0.541978 0.206805 0.129380 0.179641
C63   C     C_3   0.490922 0.184329 0.847302 -0.228916
C64   C     C_3   0.572391 0.233699 0.887022 -0.903457
H90   H     H_    0.615353 0.191172 0.949171 0.226010
H91   H     H_    0.605294 0.254242 0.793910 0.225136
H92   H     H_    0.562405 0.302708 0.940618 0.232629
H93   H     H_    0.495740 0.176795 0.736773 0.242555
H94   H     H_    0.441116 0.237338 0.851996 0.143718
C65   C     C_3   0.527172 0.818264 0.132661 -0.234666
C66   C     C_3   0.484929 0.741200 0.214712 -0.927818
H95   H     H_    0.423876 0.726945 0.170145 0.252712
H96   H     H_    0.520289 0.673219 0.210101 0.218742
H97   H     H_    0.483037 0.762584 0.324377 0.265577
H98   H     H_    0.562538 0.782108 0.054006 0.153330
H99   H     H_    0.581753 0.836914 0.187489 0.204063
C67   C     C_3   0.491689 0.814328 0.840534 -0.263072
C68   C     C_3   0.445746 0.722691 0.881534 -0.963794
H100  H     H_    0.382967 0.738745 0.916338 0.252081
H101  H     H_    0.444141 0.671242 0.794806 0.227526
H102  H     H_    0.478509 0.680856 0.960838 0.267633
H103  H     H_    0.488927 0.815303 0.729268 0.245499
H104  H     H_    0.557820 0.801647 0.849178 0.147087

loop_
_geom_bond_atom_site_label_1
_geom_bond_atom_site_label_2
_ccdc_geom_bond_type
C16   C28   S    
C29   H57   S    
Cu3   Cu4   S    
Cu3   O13   S    
C17   H13   S    
C67   C68   S    
Cu2   O12   S    
C9    O9    A    
C61   C62   S    
C4    O7    A    
C19   H15   S    
C60   H80   S    
C25   H53   S    
C14   C33   S    
C56   H70   S    
C7    C8    S    
C49   N3    S    
C13   H9    S    
C45   C46   S    
C57   H79   S    
C63   H94   S    
C2    O4    A    
C26   H22   S    
Cu3   O7    S    
C25   H21   S    
C6    H42   S    
C58   H75   S    
C60   H81   S    
C32   H64   S    
C51   C65   S    
C19   C36   S    
C56   H71   S    
C53   H68   S    
C5    C6    S    
Cu1   O9    S    
C26   C39   S    
C22   H50   S    
C48   C59   S    
C62   H85   S    
C28   C40   S    
C21   H17   S    
C27   H55   S    
C66   H95   S    
Cu2   O2    S    
C21   C37   S    
C50   C63   S    
C16   H4    S    
C10   O11   A    
C1    O1    A    
C20   H16   S    
Cu1   N2    S    
C48   N2    S    
C5    H43   S    
C29   C33   S    
C19   H7    S    
C47   N1    S    
C24   C38   S    
C61   H88   S    
C16   H12   S    
C12   C36   S    
C44   H31   S    
C45   H33   S    
C18   C35   S    
C15   C34   S    
C26   H54   S    
C67   H104  S    
C17   H5    S    
Cu1   O3    S    
C29   H58   S    
C41   H25   S    
C7    H47   S    
C29   C43   S    
C9    C33   S    
C9    O10   A    
C54   H67   S    
C30   C44   S    
C11   O13   A    
C55   H74   S    
C8    N4    S    
C45   N1    S    
C14   H10   S    
C63   H93   S    
C14   H2    S    
Cu3   O15   S    
C2    O3    A    
C30   C34   S    
C68   H100  S    
C43   H29   S    
C20   C24   S    
C60   H82   S    
C42   H28   S    
C55   C56   S    
C32   H63   S    
C3    O5    A    
C56   H72   S    
C4    O8    A    
C50   H38   S    
Cu4   O8    S    
C5    N1    S    
Cu3   O5    S    
C64   H91   S    
Cu1   Cu2   S    
C22   C37   S    
C17   C21   S    
C51   C52   S    
C28   H56   S    
Cu4   O14   S    
C20   H8    S    
C19   C23   S    
C65   C66   S    
C68   H101  S    
Cu4   N3    S    
C13   C33   S    
C16   C34   S    
C1    O2    A    
C62   H86   S    
C15   C27   S    
C47   C48   S    
C12   O16   A    
C4    C39   S    
C27   C40   S    
C64   H92   S    
C15   H11   S    
C6    N2    S    
Cu2   O4    S    
C10   C34   S    
C52   C67   S    
C14   C26   S    
C31   H62   S    
C8    H48   S    
C1    C38   S    
C45   C53   S    
C59   H84   S    
C67   H103  S    
C65   H99   S    
C63   C64   S    
C5    H41   S    
C3    C40   S    
C49   C50   S    
C30   H60   S    
Cu2   O10   S    
C48   H36   S    
C7    N3    S    
C11   O14   A    
C31   H61   S    
C55   H73   S    
C22   H18   S    
C21   H49   S    
C32   C36   S    
C54   H66   S    
C23   H51   S    
C59   C60   S    
Cu1   O1    S    
C15   H3    S    
C31   C41   S    
Cu2   N1    S    
C57   H78   S    
C18   C22   S    
C43   H30   S    
C47   H35   S    
C64   H90   S    
C50   N4    S    
C58   H77   S    
C24   H20   S    
C42   H27   S    
C23   H19   S    
C13   C25   S    
C3    O6    A    
C39   C43   S    
Cu1   O11   S    
C38   C42   S    
C46   H34   S    
C61   H89   S    
C23   C38   S    
C65   H98   S    
C27   H23   S    
C18   H14   S    
C66   H97   S    
Cu3   N4    S    
C58   H76   S    
C68   H102  S    
C53   C54   S    
C25   C39   S    
C49   C61   S    
C2    C37   S    
C32   C42   S    
C12   O15   A    
C47   C57   S    
C41   H26   S    
C46   N2    S    
C11   C35   S    
C46   C55   S    
C66   H96   S    
C52   H40   S    
C31   C35   S    
C37   C41   S    
C28   H24   S    
C10   O12   A    
C53   H69   S    
C59   H83   S    
C20   C36   S    
C40   C44   S    
C13   H1    S    
C52   N4    S    
C51   N3    S    
C30   H59   S    
C7    H45   S    
C51   H39   S    
C57   C58   S    
C24   H52   S    
Cu4   O6    S    
C54   H65   S    
Cu4   O16   S    
C18   H6    S    
C17   C35   S    
C49   H37   S    
C44   H32   S    
C8    H46   S    
C6    H44   S    
C62   H87   S    
