data_str_m2_o1_o3_f0_pcu.sym.152
_audit_creation_date              2012-12-10T18:03:33-0500
_audit_creation_method            fapswitch 2.2
_symmetry_space_group_name_H-M    P1
_symmetry_Int_Tables_number       1
_space_group_crystal_system       triclinic
_cell_length_a                    10.782915
_cell_length_b                    9.493383
_cell_length_c                    19.369305
_cell_angle_alpha                 90.07606
_cell_angle_beta                  90.602881
_cell_angle_gamma                 89.225538
_cell_volume                      1982.47262359

loop_
_atom_site_label
_atom_site_type_symbol
_atom_type_description
_atom_site_fract_x
_atom_site_fract_y
_atom_site_fract_z
_atom_type_partial_charge
C1    C     C_R   0.871808 0.495452 0.500651 -0.176065
C2    C     C_R   0.128305 0.505315 0.497708 -0.177548
C3    C     C_R   0.615474 0.506116 0.964193 -0.157417
C4    C     C_R   0.392914 0.490959 0.036700 -0.134810
C5    C     C_R   0.617432 0.507717 0.036077 -0.154099
C6    C     C_R   0.390986 0.488638 0.964797 -0.128540
C7    C     C_R   0.506137 0.500411 0.072436 0.203087
C8    C     C_R   0.502263 0.496334 0.928381 0.198748
C9    C     C_R   0.262291 0.501343 0.499675 0.906096
C10   C     C_R   0.737737 0.498732 0.499604 0.907243
C11   C     C_R   0.500485 0.499897 0.367638 0.845124
C12   C     C_R   0.499093 0.500064 0.632477 0.844620
C13   C     C_R   0.065656 0.422205 0.448670 0.164428
C14   C     C_R   0.934609 0.579635 0.549133 0.165807
C15   C     C_R   0.936044 0.414019 0.451322 0.136222
C16   C     C_R   0.063917 0.588614 0.546133 0.135286
C17   C     C_R   0.461674 0.379022 0.743692 -0.318466
C18   C     C_R   0.457404 0.616977 0.255773 -0.312372
C19   C     C_R   0.551443 0.383668 0.256586 -0.310031
C20   C     C_R   0.534647 0.619265 0.745090 -0.315997
C21   C     C_R   0.462507 0.375331 0.816459 0.414738
C22   C     C_R   0.460551 0.620174 0.183351 0.410859
C23   C     C_R   0.558028 0.384470 0.183992 0.416289
C24   C     C_R   0.539556 0.617598 0.817520 0.391325
C25   C     C_R   0.500466 0.496589 0.852632 -0.066961
C26   C     C_R   0.508082 0.501644 0.148094 -0.082160
C27   C     C_R   0.425786 0.075521 0.455105 -0.022905
C28   C     C_R   0.574192 0.924478 0.544895 -0.023321
C29   C     C_R   0.574229 0.073489 0.544867 -0.045841
C30   C     C_R   0.425793 0.926507 0.455108 -0.040838
C31   C     C_R   0.498686 0.499570 0.708224 -0.123660
C32   C     C_R   0.503125 0.500038 0.292144 -0.135546
Cu1   Cu    Cu3+1 0.500000 0.640660 0.500000 0.946902
Cu2   Cu    Cu3+1 0.500000 0.359340 0.500000 0.944654
H1    H     H_    0.366376 0.132654 0.419190 0.137497
H2    H     H_    0.633593 0.867328 0.580804 0.127949
H3    H     H_    0.633733 0.129027 0.580700 0.113311
H4    H     H_    0.366359 0.870982 0.419221 0.112505
H5    H     H_    0.429673 0.290063 0.713978 0.164451
H6    H     H_    0.416630 0.703787 0.284124 0.156885
H7    H     H_    0.583076 0.293713 0.286212 0.164899
H8    H     H_    0.558882 0.713712 0.717398 0.157510
H9    H     H_    0.701891 0.512301 0.936392 0.126704
H10   H     H_    0.306558 0.484919 0.064562 0.138361
H11   H     H_    0.705239 0.515362 0.063410 0.121207
H12   H     H_    0.303073 0.481866 0.937490 0.141500
N1    N     N_R   0.500000 0.852070 0.500000 -0.153194
N2    N     N_R   0.500000 0.147930 0.500000 -0.154733
O1    O     O_R   0.319640 0.618740 0.500000 -0.577243
O2    O     O_R   0.680360 0.381260 0.500000 -0.579976
O3    O     O_R   0.680360 0.618740 0.500000 -0.568350
O4    O     O_R   0.319640 0.381260 0.500000 -0.568801
O5    O     O_R   0.500020 0.618830 0.400190 -0.597629
O6    O     O_R   0.499980 0.381170 0.599810 -0.599329
O7    O     O_R   0.499980 0.618830 0.599810 -0.572999
O8    O     O_R   0.500020 0.381170 0.400190 -0.575324
N3    N     N_2   0.134068 0.350986 0.396033 -0.421557
H13   H     H_    0.099722 0.255325 0.380526 0.256219
C33   C     C_3   0.167751 0.438979 0.338404 -0.711832
H14   H     H_    0.083360 0.474123 0.309507 0.217157
H15   H     H_    0.228546 0.378177 0.302953 0.231976
H16   H     H_    0.219315 0.532752 0.356525 0.222763
N4    N     N_2   0.866694 0.651554 0.601644 -0.420514
H17   H     H_    0.899699 0.748867 0.615515 0.252979
C34   C     C_3   0.838004 0.565169 0.660661 -0.725685
H18   H     H_    0.924651 0.528528 0.686921 0.218296
H19   H     H_    0.782892 0.472528 0.644556 0.228360
H20   H     H_    0.782697 0.627997 0.697811 0.214489
N5    N     N_2   0.868686 0.333590 0.401587 -0.427440
H21   H     H_    0.897294 0.346461 0.351422 0.257373
C35   C     C_3   0.850494 0.187196 0.419555 -0.647986
H22   H     H_    0.937294 0.124973 0.412789 0.192187
H23   H     H_    0.777688 0.142442 0.385361 0.220992
H24   H     H_    0.820483 0.176412 0.473916 0.245316
N6    N     N_2   0.130787 0.674451 0.593845 -0.420578
H25   H     H_    0.103189 0.666108 0.644447 0.250996
C36   C     C_3   0.146796 0.819212 0.572274 -0.636512
H26   H     H_    0.059874 0.881185 0.579171 0.189670
H27   H     H_    0.173726 0.825139 0.517181 0.239222
H28   H     H_    0.221147 0.867772 0.603997 0.230786
O9    O     O_3   0.418706 0.262206 0.854912 -0.617669
C37   C     C_3   0.436708 0.128511 0.823772 0.078788
H29   H     H_    0.465770 0.054083 0.865240 0.184723
H30   H     H_    0.513217 0.124914 0.785550 0.116345
C38   C     C_3   0.313916 0.076099 0.793158 -0.353327
H31   H     H_    0.244977 0.066787 0.835129 0.228650
H32   H     H_    0.276024 0.152517 0.754839 0.211679
C39   C     C_3   0.330197 0.932936 0.758328 -0.900802
H33   H     H_    0.399002 0.939133 0.716172 0.249718
H34   H     H_    0.240102 0.899130 0.736024 0.250358
H35   H     H_    0.361508 0.853110 0.796716 0.289085
O10   O     O_3   0.408142 0.730336 0.144906 -0.612832
C40   C     C_3   0.437053 0.865366 0.171497 0.073529
H36   H     H_    0.469980 0.930246 0.127820 0.177483
H37   H     H_    0.514073 0.865270 0.210412 0.116112
C41   C     C_3   0.319779 0.935837 0.200377 -0.343571
H38   H     H_    0.249150 0.946577 0.158427 0.228917
H39   H     H_    0.279934 0.869646 0.241559 0.205739
C42   C     C_3   0.346775 0.081389 0.229957 -0.921906
H40   H     H_    0.417842 0.073814 0.271784 0.248269
H41   H     H_    0.260507 0.127752 0.251685 0.250931
H42   H     H_    0.380105 0.151914 0.188655 0.286598
O11   O     O_3   0.601227 0.270190 0.145064 -0.618731
C43   C     C_3   0.701605 0.194061 0.175634 0.066363
H43   H     H_    0.725186 0.106869 0.139568 0.166587
H44   H     H_    0.674910 0.140727 0.224069 0.121442
C44   C     C_3   0.818217 0.284162 0.184979 -0.371799
H45   H     H_    0.841889 0.333174 0.134829 0.221000
H46   H     H_    0.801045 0.369593 0.223037 0.207941
C45   C     C_3   0.928469 0.195151 0.210388 -0.937232
H47   H     H_    0.906546 0.144032 0.260263 0.256437
H48   H     H_    0.010306 0.263375 0.218210 0.258111
H49   H     H_    0.952220 0.112710 0.171794 0.259158
O12   O     O_3   0.570129 0.736475 0.855849 -0.612463
C46   C     C_3   0.681172 0.796979 0.832507 0.027212
H50   H     H_    0.660493 0.867716 0.788004 0.139302
H51   H     H_    0.750923 0.715023 0.817308 0.133030
C47   C     C_3   0.737407 0.884562 0.890891 -0.308226
H52   H     H_    0.669092 0.965712 0.907947 0.221720
H53   H     H_    0.759766 0.814848 0.935519 0.218958
C48   C     C_3   0.855292 0.957427 0.867881 -0.940670
H54   H     H_    0.925936 0.878195 0.851611 0.256623
H55   H     H_    0.893989 0.019620 0.911454 0.260098
H56   H     H_    0.834407 0.029952 0.824188 0.251595

loop_
_geom_bond_atom_site_label_1
_geom_bond_atom_site_label_2
_ccdc_geom_bond_type
C27   N2    A    
Cu1   O7    S    
N4    C34   S    
C28   N1    A    
C24   O12   S    
C40   H36   S    
C16   N6    S    
C43   H44   S    
O12   C46   S    
C36   H26   S    
Cu2   O8    S    
C3    H9    S    
C7    C26   S    
C28   C29   A    
N3    C33   S    
C13   N3    S    
C10   O3    A    
Cu1   O1    S    
C46   H50   S    
C41   C42   S    
C30   H4    S    
C17   H5    S    
C23   C26   A    
N5    C35   S    
C2    C13   A    
C18   H6    S    
C47   H52   S    
C48   H56   S    
C45   H47   S    
C23   O11   S    
C20   C24   A    
C46   H51   S    
C41   H39   S    
C44   H45   S    
C1    C15   A    
C2    C16   A    
C11   O5    A    
C34   H20   S    
C38   H32   S    
C33   H14   S    
C40   H37   S    
C27   C30   A    
C8    C25   S    
C44   H46   S    
C9    O4    A    
C4    C7    A    
C19   C32   A    
C43   H43   S    
O9    C37   S    
C45   H48   S    
C36   H27   S    
Cu1   O5    S    
C15   N5    S    
Cu2   O2    S    
C33   H15   S    
C29   N2    A    
C30   N1    A    
C9    O1    A    
C24   C25   A    
C4    C6    A    
C3    C8    A    
C35   H23   S    
C6    C8    A    
C4    H10   S    
C27   H1    S    
C38   H31   S    
C5    H11   S    
C37   H29   S    
C17   C21   A    
C47   C48   S    
C19   C23   A    
N6    H25   S    
C42   H40   S    
C39   H35   S    
C46   C47   S    
C41   H38   S    
Cu1   Cu2   S    
N6    C36   S    
C45   H49   S    
C48   H54   S    
C42   H41   S    
C39   H34   S    
C11   C32   S    
Cu2   O6    S    
C40   C41   S    
C37   H30   S    
C13   C15   A    
C12   C31   S    
C17   C31   A    
C44   C45   S    
C14   C16   A    
Cu2   N2    S    
C10   O2    A    
C5    C7    A    
C38   C39   S    
C21   C25   A    
C33   H16   S    
C6    H12   S    
C18   C22   A    
C1    C10   S    
C21   O9    S    
C3    C5    A    
C35   H24   S    
C20   H8    S    
Cu1   O3    S    
C37   C38   S    
Cu2   O4    S    
C34   H19   S    
C35   H22   S    
C36   H28   S    
N3    H13   S    
Cu1   N1    S    
C14   N4    S    
O10   C40   S    
N5    H21   S    
C47   H53   S    
C48   H55   S    
C12   O7    A    
N4    H17   S    
C42   H42   S    
C18   C32   A    
C39   H33   S    
C28   H2    S    
C34   H18   S    
C22   C26   A    
C29   H3    S    
O11   C43   S    
C22   O10   S    
C1    C14   A    
C2    C9    S    
C43   C44   S    
C12   O6    A    
C11   O8    A    
C19   H7    S    
C20   C31   A    
