data_str_m9_o11_o18_f0_sra.sym.146
_audit_creation_date              2012-12-11T14:21:06-0500
_audit_creation_method            fapswitch 2.2
_symmetry_space_group_name_H-M    P1
_symmetry_Int_Tables_number       1
_space_group_crystal_system       triclinic
_cell_length_a                    21.991814
_cell_length_b                    7.196565
_cell_length_c                    14.924582
_cell_angle_alpha                 89.953606
_cell_angle_beta                  106.877026
_cell_angle_gamma                 89.990103
_cell_volume                      2260.31258328

loop_
_atom_site_label
_atom_site_type_symbol
_atom_type_description
_atom_site_fract_x
_atom_site_fract_y
_atom_site_fract_z
_atom_type_partial_charge
O1    O     O_R   0.584770 0.505770 0.002090 -0.544765
O2    O     O_R   0.415230 0.005770 0.997910 -0.544870
O3    O     O_R   0.467060 0.173340 0.861950 -0.531248
O4    O     O_R   0.532940 0.673340 0.138050 -0.530651
C1    C     C_R   0.454276 0.344355 0.825967 0.773160
C2    C     C_R   0.545705 0.844184 0.174083 0.772025
O5    O     O_R   0.587510 0.175890 0.993210 -0.537810
O6    O     O_R   0.412490 0.675890 0.006790 -0.537379
O7    O     O_R   0.536540 0.008150 0.130100 -0.542416
O8    O     O_R   0.463460 0.508150 0.869900 -0.542408
C3    C     C_R   0.612816 0.345281 0.996963 0.780627
C4    C     C_R   0.387183 0.845298 0.003039 0.780357
O9    O     O_3   0.483140 0.340040 0.044760 -0.378424
O10   O     O_3   0.516860 0.840040 0.955240 -0.378753
V1    V     V_3+5 0.503130 0.064190 0.991700 1.491305
V2    V     V_3+5 0.496870 0.564190 0.008300 1.492711
C5    C     C_2   0.219115 0.728245 0.023018 0.413191
C6    C     C_2   0.780895 0.228379 0.976936 0.413720
C7    C     C_2   0.180819 0.880338 0.997408 -0.351434
C8    C     C_2   0.819176 0.380378 0.002570 -0.351734
H1    H     H_    0.198685 0.003241 0.971523 0.116449
H2    H     H_    0.801299 0.503169 0.028478 0.116340
C9    C     C_2   0.284997 0.716365 0.014615 -0.147337
C10   C     C_2   0.715016 0.216412 0.985353 -0.147966
C11   C     C_2   0.320774 0.863012 0.006383 -0.336462
C12   C     C_2   0.679223 0.363000 0.993616 -0.335263
H3    H     H_    0.305827 0.578438 0.019700 0.181307
H4    H     H_    0.694202 0.078500 0.980243 0.180829
H5    H     H_    0.302153 0.002788 0.005044 0.146466
H6    H     H_    0.697830 0.502772 0.994974 0.146309
C13   C     C_R   0.926518 0.884123 0.724441 -0.034596
C14   C     C_R   0.073330 0.383034 0.275550 -0.035185
C15   C     C_R   0.574367 0.850367 0.276158 -0.124416
C16   C     C_R   0.425413 0.351477 0.724003 -0.123806
C17   C     C_R   0.936728 0.837210 0.569408 -0.160020
C18   C     C_R   0.063359 0.323931 0.429813 -0.159848
C19   C     C_R   0.964641 0.858560 0.665282 -0.184185
C20   C     C_R   0.035378 0.348759 0.334166 -0.183997
C21   C     C_R   0.860366 0.888752 0.687975 -0.197384
C22   C     C_R   0.139392 0.392650 0.312330 -0.197963
C23   C     C_R   0.830701 0.863006 0.591216 0.076075
C24   C     C_R   0.169184 0.362675 0.408753 0.076056
C25   C     C_R   0.870312 0.838543 0.531989 0.146067
C26   C     C_R   0.129722 0.329696 0.467466 0.145996
C27   C     C_R   0.763254 0.858499 0.551519 0.041221
C28   C     C_R   0.236639 0.361523 0.448531 0.040930
C29   C     C_R   0.736843 0.850644 0.452234 0.081079
C30   C     C_R   0.263035 0.348633 0.547681 0.081215
C31   C     C_R   0.777904 0.812311 0.397465 -0.197391
C32   C     C_R   0.222228 0.302382 0.601782 -0.196816
C33   C     C_R   0.843375 0.809300 0.436373 -0.207704
C34   C     C_R   0.156811 0.295992 0.562686 -0.207599
C35   C     C_R   0.721414 0.850410 0.607540 -0.157205
C36   C     C_R   0.278588 0.361349 0.392571 -0.158468
C37   C     C_R   0.656408 0.829053 0.567463 -0.104457
C38   C     C_R   0.343725 0.342788 0.432513 -0.105270
C39   C     C_R   0.630185 0.831013 0.470432 0.022778
C40   C     C_R   0.369860 0.339994 0.529557 0.022419
C41   C     C_R   0.669500 0.861110 0.411506 0.075738
C42   C     C_R   0.330267 0.362257 0.588692 0.076168
C43   C     C_R   0.564899 0.801214 0.431969 -0.178145
C44   C     C_R   0.435352 0.313453 0.567809 -0.178500
C45   C     C_R   0.537703 0.800324 0.335357 0.341829
C46   C     C_R   0.462506 0.308742 0.664410 0.340895
C47   C     C_R   0.639246 0.897812 0.314713 0.036066
C48   C     C_R   0.360154 0.395009 0.685916 0.036604
H7    H     H_    0.873139 0.782053 0.391294 0.125780
H8    H     H_    0.127229 0.262375 0.607262 0.125523
H9    H     H_    0.626324 0.811468 0.612973 0.164559
H10   H     H_    0.373978 0.331299 0.386902 0.166440
H11   H     H_    0.967079 0.816951 0.524533 0.117795
H12   H     H_    0.033138 0.296924 0.474251 0.117940
H13   H     H_    0.015904 0.853557 0.693488 0.104532
H14   H     H_    0.984208 0.339422 0.305668 0.104925
H15   H     H_    0.833581 0.913305 0.736933 0.151331
H16   H     H_    0.166023 0.423406 0.263818 0.151420
H17   H     H_    0.759815 0.776650 0.324264 0.148595
H18   H     H_    0.240542 0.262943 0.674484 0.148773
H19   H     H_    0.737724 0.847126 0.682914 0.158375
H20   H     H_    0.262356 0.362203 0.317177 0.159781
H21   H     H_    0.535239 0.772416 0.477058 0.170810
H22   H     H_    0.465268 0.290571 0.522492 0.171294
O11   O     O_R   0.036450 0.233070 0.130130 -0.540221
O12   O     O_R   0.963550 0.733070 0.869870 -0.540425
O13   O     O_R   0.912470 0.560570 0.006790 -0.536497
O14   O     O_R   0.087530 0.060570 0.993210 -0.536356
C49   C     C_R   0.886500 0.391094 0.000753 0.767117
C50   C     C_R   0.113498 0.891066 0.999238 0.767309
O15   O     O_R   0.032920 0.562940 0.138050 -0.538933
O16   O     O_R   0.967080 0.062940 0.861950 -0.538655
O17   O     O_R   0.084790 0.730500 0.002090 -0.504930
O18   O     O_R   0.915210 0.230500 0.997910 -0.504933
C51   C     C_R   0.044863 0.394148 0.174423 0.708376
C52   C     C_R   0.955094 0.894339 0.825571 0.708281
O19   O     O_3   0.016820 0.396170 0.955260 -0.373084
O20   O     O_3   0.983180 0.896170 0.044740 -0.373251
V3    V     V_3+5 0.996880 0.672090 0.008300 1.538428
V4    V     V_3+5 0.003120 0.172090 0.991700 1.539169
Cl1   Cl    Cl    0.194675 0.525350 0.070036 -0.674044
Cl2   Cl    Cl    0.805347 0.025711 0.929854 -0.673543
C53   C     C_3   0.671444 0.009756 0.255135 -0.773071
H23   H     H_    0.716350 0.075086 0.296804 0.215807
H24   H     H_    0.680059 0.921545 0.199020 0.189331
H25   H     H_    0.641011 0.128975 0.222639 0.220599
C54   C     C_3   0.326989 0.499389 0.746763 -0.775818
H26   H     H_    0.281629 0.563528 0.705808 0.216295
H27   H     H_    0.318969 0.406213 0.801588 0.189843
H28   H     H_    0.356453 0.618937 0.780997 0.219607
Cl3   Cl    Cl    0.456219 0.747203 0.290757 -0.649646
Cl4   Cl    Cl    0.544395 0.260626 0.708648 -0.648677

loop_
_geom_bond_atom_site_label_1
_geom_bond_atom_site_label_2
_ccdc_geom_bond_type
C40   C44   A    
O4    V2    S    
C53   H23   S    
O1    C3    A    
C47   C53   S    
O2    C4    A    
C16   C48   A    
C2    O7    A    
O19   V4    S    
O18   V4    S    
C29   C31   A    
O5    C3    A    
C54   H27   S    
C5    C9    S    
C6    Cl2   S    
C6    C10   S    
O12   V3    S    
C17   C19   A    
C10   C12   D    
O14   C50   A    
C39   C41   A    
C40   C42   A    
O11   C51   A    
C8    C49   S    
C24   C28   A    
C27   C29   A    
C43   C45   A    
C44   C46   A    
C31   H17   S    
C31   C33   A    
O11   V4    S    
C32   C34   A    
C30   C42   A    
C14   C20   A    
C17   C25   A    
C34   H8    S    
C15   C45   A    
C26   C34   A    
C30   C32   A    
C14   C51   S    
C44   H22   S    
C42   C48   A    
O6    V2    S    
C49   O18   A    
C1    C16   S    
C23   C25   A    
C24   C26   A    
C32   H18   S    
O16   C52   A    
C36   H20   S    
C9    H3    S    
C35   C37   A    
C11   H5    S    
C54   H28   S    
C36   C38   A    
O13   C49   A    
C15   C47   A    
C21   C23   A    
C7    C50   S    
O12   C52   A    
O5    V1    S    
C3    C12   S    
C29   C41   A    
C22   H16   S    
O15   V3    S    
C45   Cl3   S    
C46   Cl4   S    
C50   O17   A    
O6    C4    A    
O20   V3    S    
C28   C36   A    
C16   C46   A    
O1    V2    S    
C33   H7    S    
O17   V3    S    
O2    V1    S    
C5    Cl1   S    
C37   H9    S    
O4    C2    A    
C8    H2    S    
C12   H6    S    
C53   H25   S    
C21   H15   S    
C37   C39   A    
C18   C26   A    
C48   C54   S    
C14   C22   A    
O3    V1    S    
C20   H14   S    
C19   H13   S    
C35   H19   S    
C10   H4    S    
O3    C1    A    
C39   C43   A    
C13   C52   S    
C54   H26   S    
C38   H10   S    
C2    C15   S    
C4    C11   S    
C18   C20   A    
O7    V1    S    
C1    O8    A    
C17   H11   S    
C43   H21   S    
C41   C47   A    
C25   C33   A    
C22   C24   A    
C5    C7    D    
C38   C40   A    
C6    C8    D    
C9    C11   D    
O15   C51   A    
O14   V4    S    
O13   V3    S    
C27   C35   A    
C28   C30   A    
C13   C19   A    
C53   H24   S    
O9    V2    S    
C13   C21   A    
C23   C27   A    
O10   V1    S    
O8    V2    S    
O16   V4    S    
C18   H12   S    
C7    H1    S    
