data_str_m9_o11_o16_f0_sra.sym.1
_audit_creation_date              2012-12-11T14:17:38-0500
_audit_creation_method            fapswitch 2.2
_symmetry_space_group_name_H-M    P1
_symmetry_Int_Tables_number       1
_space_group_crystal_system       triclinic
_cell_length_a                    6.946072
_cell_length_b                    13.638385
_cell_length_c                    20.413369
_cell_angle_alpha                 102.159955
_cell_angle_beta                  89.949365
_cell_angle_gamma                 90.653565
_cell_volume                      1890.31006293

loop_
_atom_site_label
_atom_site_type_symbol
_atom_type_description
_atom_site_fract_x
_atom_site_fract_y
_atom_site_fract_z
_atom_type_partial_charge
O1    O     O_R   0.506860 0.599390 0.449240 -0.539313
O2    O     O_R   0.180220 0.594600 0.586780 -0.543199
O3    O     O_R   0.004500 0.400610 0.550760 -0.538787
C1    C     C_R   0.349045 0.616036 0.613471 0.741193
O4    O     O_R   0.177490 0.611290 0.451970 -0.541405
O5    O     O_R   0.001750 0.417420 0.414990 -0.539321
C2    C     C_R   0.346931 0.637888 0.435209 0.695936
O6    O     O_R   0.509610 0.582580 0.585010 -0.543064
O7    O     O_3   0.337420 0.436370 0.488020 -0.372383
V1    V     V_3+5 0.064680 0.511800 0.502220 1.418680
O8    O     O_R   0.671710 0.405400 0.413220 -0.546867
C3    C     C_R   0.839784 0.384067 0.386536 0.741100
O9    O     O_R   0.674440 0.388710 0.548030 -0.541607
C4    C     C_R   0.842560 0.362132 0.564820 0.696308
V2    V     V_3+5 0.564010 0.488200 0.497780 1.414571
O10   O     O_3   0.841140 0.563630 0.511980 -0.372724
C5    C     C_R   0.847620 0.111002 0.612358 -0.158251
H1    H     H_    0.840070 0.161233 0.519622 0.104436
H2    H     H_    0.852696 0.985592 0.695361 0.122028
H3    H     H_    0.845074 0.032617 0.587237 0.113288
C6    C     C_R   0.848862 0.285226 0.604888 -0.030637
C7    C     C_R   0.866043 0.315379 0.928729 -0.169006
C8    C     C_R   0.863561 0.391531 0.893070 -0.119201
C9    C     C_R   0.859717 0.368807 0.823256 -0.157198
C10   C     C_R   0.858165 0.268008 0.786959 0.077108
C11   C     C_R   0.859732 0.190193 0.823967 0.067380
C12   C     C_R   0.855135 0.241840 0.715341 0.072026
C13   C     C_R   0.852484 0.138834 0.682608 0.141758
C14   C     C_R   0.854299 0.064198 0.720036 -0.202808
C15   C     C_R   0.858133 0.089251 0.789522 -0.194558
C16   C     C_R   0.854258 0.314173 0.674794 -0.213626
C17   C     C_R   0.845048 0.183846 0.573760 -0.175528
C18   C     C_R   0.863790 0.215048 0.894961 -0.073694
H4    H     H_    0.856444 0.393607 0.695653 0.093435
H5    H     H_    0.869914 0.334723 0.983005 0.102383
H6    H     H_    0.858050 0.432084 0.799437 0.106790
H7    H     H_    0.865045 0.469068 0.919770 0.119055
H8    H     H_    0.859605 0.028395 0.816067 0.116636
C19   C     C_2   0.005362 0.288683 0.285051 -0.133875
C20   C     C_2   0.842176 0.315674 0.319762 -0.310920
H9    H     H_    0.142560 0.317203 0.307042 0.133799
H10   H     H_    0.703507 0.287589 0.299448 0.126323
C21   C     C_2   0.013694 0.220544 0.217455 -0.133272
C22   C     C_2   0.858583 0.183336 0.180340 -0.307545
H11   H     H_    0.156529 0.201153 0.197540 0.131989
H12   H     H_    0.714473 0.201941 0.198668 0.126215
C23   C     C_2   0.204549 0.790624 0.782387 -0.135944
C24   C     C_2   0.363655 0.815745 0.819919 -0.305875
H13   H     H_    0.066801 0.820627 0.801809 0.131112
H14   H     H_    0.502197 0.786061 0.801809 0.127780
C25   C     C_2   0.202887 0.722155 0.714873 -0.131615
C26   C     C_2   0.361013 0.684281 0.680227 -0.311449
H15   H     H_    0.061651 0.703048 0.692765 0.133859
H16   H     H_    0.504094 0.702954 0.700297 0.125119
C27   C     C_R   0.398911 0.887741 0.387300 -0.158048
H17   H     H_    0.395670 0.837485 0.480072 0.104622
H18   H     H_    0.421833 0.012567 0.304110 0.122101
H19   H     H_    0.419534 0.965538 0.412263 0.113253
C28   C     C_R   0.358306 0.714642 0.395075 -0.030682
C29   C     C_R   0.328907 0.685381 0.071445 -0.169064
C30   C     C_R   0.314255 0.609577 0.107216 -0.118894
C31   C     C_R   0.324411 0.631993 0.176958 -0.157340
C32   C     C_R   0.349935 0.732111 0.213064 0.077124
C33   C     C_R   0.365593 0.809513 0.175935 0.067277
C34   C     C_R   0.360346 0.758007 0.284604 0.072000
C35   C     C_R   0.386932 0.860273 0.317136 0.141629
C36   C     C_R   0.401754 0.934516 0.279589 -0.202799
C37   C     C_R   0.391126 0.909769 0.210182 -0.194690
C38   C     C_R   0.345677 0.686088 0.325265 -0.213665
C39   C     C_R   0.385193 0.815235 0.426008 -0.175860
C40   C     C_R   0.354682 0.784995 0.105026 -0.073856
H20   H     H_    0.325392 0.607221 0.304562 0.093246
H21   H     H_    0.319859 0.666347 0.017236 0.102646
H22   H     H_    0.311651 0.569031 0.200877 0.106941
H23   H     H_    0.294417 0.532583 0.080665 0.118977
H24   H     H_    0.403376 0.970307 0.183537 0.117934
O11   O     O_R   0.203230 0.917310 0.915020 -0.539058
O12   O     O_R   0.535500 0.888690 0.048040 -0.540865
O13   O     O_R   0.711080 0.082610 0.085000 -0.544589
C41   C     C_R   0.366119 0.862272 0.064966 0.687952
O14   O     O_R   0.532630 0.905370 0.913230 -0.548210
O15   O     O_R   0.708190 0.099410 0.949230 -0.538555
C42   C     C_R   0.364376 0.884225 0.886518 0.744095
O16   O     O_R   0.206120 0.900510 0.050790 -0.538431
O17   O     O_3   0.375360 0.063570 0.011990 -0.372707
V3    V     V_3+5 0.648170 0.988200 0.997780 1.414698
O18   O     O_R   0.038240 0.111390 0.951940 -0.540995
C43   C     C_R   0.870135 0.137648 0.934966 0.687374
O19   O     O_R   0.041120 0.094710 0.086750 -0.542413
C44   C     C_R   0.872509 0.115716 0.113524 0.743819
V4    V     V_3+5 0.148810 0.011930 0.002180 1.420854
O20   O     O_3   0.871750 0.936430 0.988010 -0.372455

loop_
_geom_bond_atom_site_label_1
_geom_bond_atom_site_label_2
_ccdc_geom_bond_type
O18   C43   A    
C32   C34   A    
O18   V4    S    
C41   O16   A    
O17   V4    S    
C19   H9    S    
O17   V3    S    
C30   H23   S    
C7    H5    S    
C6    C16   A    
C9    H6    S    
C1    C26   S    
C33   C37   A    
C4    C6    S    
C13   C14   A    
C18   C43   S    
O5    C3    A    
O15   C43   A    
O11   C42   A    
V2    O10   S    
C29   H21   S    
C5    H3    S    
C15   H8    S    
C33   C40   A    
O13   C44   A    
O8    V2    S    
C26   H16   S    
C8    C9    A    
O1    V2    S    
O16   V4    S    
O19   V4    S    
O7    V1    S    
O14   V3    S    
C1    O6    A    
O12   V3    S    
C20   H10   S    
C35   C36   A    
O9    C4    A    
H18   C36   S    
C2    C28   S    
C40   C41   S    
O14   C42   A    
C22   H12   S    
C6    C17   A    
C12   C16   A    
C25   C26   D    
C9    C10   A    
C23   H13   S    
V4    O20   S    
O4    C2    A    
C23   C25   S    
C29   C40   A    
C10   C11   A    
C8    H7    S    
C36   C37   A    
C29   C30   A    
C25   H15   S    
C3    C20   S    
C38   H20   S    
O2    C1    A    
C21   C22   D    
C14   C15   A    
C11   C18   A    
C23   C24   D    
C31   C32   A    
C16   H4    S    
C21   H11   S    
O3    C4    A    
C28   C38   A    
C11   C15   A    
O6    V2    S    
H17   C39   S    
O9    V2    S    
C10   C12   A    
O2    V1    S    
C19   C20   D    
C27   C35   A    
C22   C44   S    
C7    C18   A    
O11   V4    S    
O1    C2    A    
C5    C13   A    
O5    V1    S    
C19   C21   S    
O8    C3    A    
C37   H24   S    
C24   C42   S    
O7    V2    S    
O4    V1    S    
O3    V1    S    
V3    O20   S    
O15   V3    S    
C34   C38   A    
C24   H14   S    
O12   C41   A    
C30   C31   A    
C27   C39   A    
C28   C39   A    
C32   C33   A    
H1    C17   S    
C34   C35   A    
C27   H19   S    
C12   C13   A    
C5    C17   A    
C7    C8    A    
C31   H22   S    
V1    O10   S    
O19   C44   A    
O13   V3    S    
H2    C14   S    
