data_str_m2_o16_o18_f0_pcu.sym.135
_audit_creation_date              2012-12-10T17:32:57-0500
_audit_creation_method            fapswitch 2.2
_symmetry_space_group_name_H-M    P1
_symmetry_Int_Tables_number       1
_space_group_crystal_system       triclinic
_cell_length_a                    12.381831
_cell_length_b                    13.756224
_cell_length_c                    14.436676
_cell_angle_alpha                 93.970681
_cell_angle_beta                  108.396517
_cell_angle_gamma                 117.614004
_cell_volume                      1998.43116608

loop_
_atom_site_label
_atom_site_type_symbol
_atom_type_description
_atom_site_fract_x
_atom_site_fract_y
_atom_site_fract_z
_atom_type_partial_charge
C1    C     C_R   0.647492 0.711538 0.503182 0.766639
C2    C     C_R   0.828057 0.465387 0.908574 0.015549
C3    C     C_R   0.764082 0.458488 0.975398 0.037533
C4    C     C_R   0.931374 0.439410 0.933762 -0.044226
C5    C     C_R   0.991526 0.440263 0.035543 -0.032516
C6    C     C_R   0.924837 0.432944 0.099757 -0.314585
C7    C     C_R   0.806630 0.432624 0.066807 0.430759
C8    C     C_R   0.969607 0.403023 0.861316 0.452986
C9    C     C_R   0.071833 0.379355 0.892455 -0.315574
C10   C     C_R   0.141675 0.393412 0.995111 0.026517
C11   C     C_R   0.107656 0.433792 0.067707 0.087275
C12   C     C_R   0.618406 0.516280 0.686795 0.790281
C13   C     C_R   0.240386 0.363302 0.026977 0.177573
C14   C     C_R   0.315582 0.390996 0.131438 -0.190761
C15   C     C_R   0.189603 0.466023 0.170784 -0.241306
C16   C     C_R   0.169910 0.975162 0.391640 -0.174800
C17   C     C_R   0.257245 0.168225 0.474230 -0.032428
C18   C     C_R   0.692449 0.912617 0.520743 0.158361
C19   C     C_R   0.791160 0.027277 0.552099 -0.155486
C20   C     C_R   0.913087 0.062600 0.546780 -0.232868
C21   C     C_R   0.937811 0.984736 0.501982 0.081353
C22   C     C_R   0.839695 0.867543 0.472320 -0.016841
C23   C     C_R   0.347604 0.287861 0.488546 0.774105
C24   C     C_R   0.052875 0.020319 0.479955 0.023503
C25   C     C_R   0.063718 0.939755 0.422470 0.059706
C26   C     C_R   0.965683 0.825222 0.391996 0.393931
C27   C     C_R   0.853229 0.791305 0.413060 -0.290114
C28   C     C_R   0.154973 0.134546 0.508575 -0.244483
C29   C     C_R   0.265906 0.087985 0.417596 -0.222080
C30   C     C_R   0.725888 0.830839 0.496665 -0.148117
C31   C     C_R   0.268685 0.691597 0.664644 0.077954
C32   C     C_R   0.650117 0.328027 0.382753 0.077135
C33   C     C_R   0.723889 0.277173 0.382103 -0.284849
C34   C     C_R   0.376792 0.477338 0.312712 0.782230
C35   C     C_R   0.859871 0.338024 0.439253 -0.123527
C36   C     C_R   0.926510 0.453424 0.488577 0.045619
C37   C     C_R   0.845152 0.495287 0.499107 0.202789
C38   C     C_R   0.068888 0.523124 0.537243 -0.200696
C39   C     C_R   0.126864 0.624304 0.614814 -0.007215
C40   C     C_R   0.041206 0.656350 0.636356 0.410021
C41   C     C_R   0.904127 0.593001 0.575991 -0.324034
C42   C     C_R   0.154646 0.502078 0.502900 0.566766
C43   C     C_R   0.345569 0.655914 0.636854 -0.081264
C44   C     C_R   0.675646 0.511765 0.792388 -0.105032
C45   C     C_R   0.295562 0.447614 0.203212 -0.111655
C46   C     C_R   0.660630 0.480682 0.952224 -0.202532
C47   C     C_R   0.616843 0.509825 0.863082 0.144941
C48   C     C_R   0.785819 0.497075 0.819594 -0.216234
Cu1   Cu    Cu3+1 0.416420 0.526630 0.522910 0.922974
Cu2   Cu    Cu3+1 0.583580 0.473370 0.477090 0.894184
H1    H     H_    0.343907 0.112555 0.389544 0.156022
H2    H     H_    0.177044 0.916885 0.343516 0.178269
H3    H     H_    0.156974 0.199682 0.556056 0.135539
H4    H     H_    0.981414 0.152815 0.571580 0.128371
H5    H     H_    0.774008 0.091097 0.579946 0.153561
H6    H     H_    0.772776 0.706408 0.375779 0.194588
H7    H     H_    0.452435 0.704537 0.673853 0.151292
H8    H     H_    0.172820 0.507680 0.226445 0.189372
H9    H     H_    0.543590 0.279096 0.342689 0.124832
H10   H     H_    0.908864 0.290710 0.451875 0.149122
H11   H     H_    0.674925 0.188788 0.342794 0.150457
H12   H     H_    0.843075 0.616528 0.595958 0.212885
H13   H     H_    0.388095 0.366419 0.158011 0.165027
H14   H     H_    0.094961 0.349395 0.834291 0.157572
H15   H     H_    0.616266 0.479463 0.005989 0.170867
H16   H     H_    0.839395 0.512562 0.770926 0.222770
H17   H     H_    0.957214 0.417947 0.172923 0.183957
N1    N     N_R   0.290690 0.566960 0.557640 -0.229976
N2    N     N_R   0.709100 0.433710 0.442970 -0.211568
O1    O     O_R   0.545970 0.684450 0.528810 -0.593696
O2    O     O_R   0.687130 0.639470 0.490120 -0.609432
O3    O     O_R   0.519670 0.535100 0.660030 -0.572722
O4    O     O_R   0.660830 0.490120 0.621340 -0.607507
O5    O     O_R   0.312870 0.360530 0.509880 -0.621794
O6    O     O_R   0.454030 0.315550 0.471190 -0.592140
O7    O     O_R   0.339170 0.509880 0.378660 -0.559067
O8    O     O_R   0.480330 0.464900 0.339970 -0.594141
O9    O     O_3   0.727385 0.399531 0.120870 -0.604428
C49   C     C_3   0.778054 0.489781 0.204149 0.027016
H18   H     H_    0.834631 0.574997 0.191761 0.202328
H19   H     H_    0.841998 0.478989 0.271314 0.190267
C50   C     C_3   0.662875 0.484841 0.223406 -0.750732
H20   H     H_    0.591204 0.395805 0.217130 0.247701
H21   H     H_    0.698669 0.535610 0.300170 0.239507
H22   H     H_    0.613143 0.518311 0.168148 0.217548
C51   C     C_3   0.257212 0.296117 0.949296 -0.437903
C52   C     C_3   0.347609 0.248972 0.991134 -0.833264
H23   H     H_    0.451124 0.318896 0.033911 0.275418
H24   H     H_    0.312467 0.193517 0.040165 0.250136
H25   H     H_    0.346099 0.197424 0.927502 0.250348
H26   H     H_    0.158050 0.221912 0.900759 0.208043
H27   H     H_    0.294900 0.350010 0.900255 0.192619
O10   O     O_3   0.973881 0.747148 0.333110 -0.608350
C53   C     C_3   0.061663 0.717476 0.395610 0.014547
H28   H     H_    0.002516 0.641672 0.417502 0.169520
H29   H     H_    0.139837 0.785014 0.465864 0.141090
C54   C     C_3   0.131749 0.688810 0.338018 -0.781144
H30   H     H_    0.184218 0.759640 0.307148 0.231267
H31   H     H_    0.205980 0.672530 0.389555 0.238045
H32   H     H_    0.059767 0.612273 0.274770 0.239036
C55   C     C_3   0.551714 0.878168 0.509540 -0.355328
C56   C     C_3   0.512377 0.966679 0.487177 -0.934364
H33   H     H_    0.555626 0.031809 0.557986 0.255733
H34   H     H_    0.545299 0.005838 0.429084 0.265823
H35   H     H_    0.402928 0.926112 0.459175 0.252307
H36   H     H_    0.480216 0.802737 0.444182 0.228544
H37   H     H_    0.538293 0.856240 0.579266 0.211372
O11   O     O_3   0.091189 0.742433 0.722126 -0.582432
C57   C     C_3   0.030232 0.808767 0.708659 0.059336
H38   H     H_    0.935081 0.764983 0.718812 0.144937
H39   H     H_    0.013463 0.827591 0.633283 0.142768
C58   C     C_3   0.118581 0.921021 0.789291 -0.792909
H40   H     H_    0.214028 0.971465 0.781337 0.245380
H41   H     H_    0.068383 0.970994 0.781301 0.203909
H42   H     H_    0.138492 0.905272 0.865634 0.254523
C59   C     C_3   0.346128 0.806121 0.741287 -0.321130
C60   C     C_3   0.347591 0.899764 0.689640 -0.817196
H43   H     H_    0.397688 0.907741 0.636732 0.242412
H44   H     H_    0.245997 0.881511 0.646259 0.262730
H45   H     H_    0.403174 0.982066 0.747203 0.233052
H46   H     H_    0.311536 0.803891 0.803447 0.254861
H47   H     H_    0.451478 0.830715 0.780894 0.158252
O12   O     O_3   0.105693 0.450650 0.399855 -0.602713
C61   C     C_3   0.081346 0.338232 0.378995 0.140643
H48   H     H_    0.078282 0.299157 0.443597 0.112547
H49   H     H_    0.158656 0.336954 0.358070 0.197914
C62   C     C_3   0.954744 0.262119 0.284456 -0.890443
H50   H     H_    0.882820 0.291242 0.271779 0.283709
H51   H     H_    0.978423 0.261902 0.216339 0.235905
H52   H     H_    0.907273 0.173482 0.291561 0.224983
C63   C     C_3   0.514348 0.544506 0.851907 -0.373054
C64   C     C_3   0.577536 0.672838 0.868035 -0.814390
H53   H     H_    0.622790 0.702739 0.812892 0.248282
H54   H     H_    0.500936 0.696022 0.859904 0.227939
H55   H     H_    0.655930 0.716688 0.945468 0.250455
H56   H     H_    0.427234 0.497283 0.779308 0.220631
H57   H     H_    0.472366 0.522692 0.910154 0.183580
O13   O     O_3   0.901718 0.379748 0.758581 -0.593076
C65   C     C_3   0.781791 0.274245 0.726268 0.022600
H58   H     H_    0.725214 0.267804 0.774436 0.151454
H59   H     H_    0.802053 0.203490 0.727567 0.141185
C66   C     C_3   0.694521 0.261226 0.619405 -0.752652
H60   H     H_    0.719666 0.225888 0.563821 0.225108
H61   H     H_    0.588172 0.206021 0.604913 0.202899
H62   H     H_    0.710937 0.344558 0.608563 0.305380

loop_
_geom_bond_atom_site_label_1
_geom_bond_atom_site_label_2
_ccdc_geom_bond_type
C55   H37   S    
C52   H23   S    
C55   C56   S    
Cu1   N1    S    
C37   N2    A    
C9    H14   S    
C17   C29   A    
C35   C36   A    
C4    C8    A    
C58   H41   S    
C54   H30   S    
O12   C61   S    
O11   C57   S    
C26   C27   A    
C17   C23   S    
C31   C43   A    
C36   C37   A    
Cu2   N2    S    
C38   C42   A    
C3    C7    A    
C51   H26   S    
C60   H44   S    
C34   O8    A    
C5    C6    A    
C65   C66   S    
C55   H36   S    
C59   C60   S    
C56   H35   S    
C8    O13   S    
C18   C19   A    
C53   H29   S    
C52   H25   S    
C11   C15   A    
C19   C20   A    
C64   H53   S    
Cu1   O3    S    
C13   C51   S    
C18   C30   A    
C9    C10   A    
C44   C47   A    
C40   O11   S    
C26   O10   S    
C12   O3    A    
C13   C14   A    
C42   N1    A    
C66   H62   S    
C53   H28   S    
C41   H12   S    
C12   O4    A    
C58   H40   S    
C54   H31   S    
C42   O12   S    
C14   C45   A    
C59   H46   S    
C16   H2    S    
C24   C25   A    
C46   H15   S    
C20   H4    S    
C63   H56   S    
C10   C11   A    
C57   C58   S    
C39   C40   A    
C49   H19   S    
C27   H6    S    
C8    C9    A    
C53   C54   S    
C2    C48   A    
C16   C29   A    
C47   C63   S    
C35   H10   S    
C18   C55   S    
C2    C4    A    
Cu2   O2    S    
C62   H51   S    
C63   H57   S    
C28   H3    S    
Cu1   O7    S    
C34   C45   S    
C1    O2    A    
C65   H59   S    
C56   H34   S    
C6    C7    A    
C59   H47   S    
C61   C62   S    
C33   H11   S    
C6    H17   S    
Cu1   Cu2   S    
C50   H21   S    
C22   C27   A    
C52   H24   S    
C15   H8    S    
C66   H61   S    
C60   H45   S    
C15   C45   A    
C23   O5    A    
C62   H50   S    
Cu2   O8    S    
C31   C59   S    
C54   H32   S    
C61   H49   S    
C29   H1    S    
C19   H5    S    
C16   C25   A    
C46   C47   A    
C40   C41   A    
C22   C30   A    
C51   C52   S    
C17   C28   A    
C24   C28   A    
C23   O6    A    
C4    C5    A    
C10   C13   A    
C49   C50   S    
C65   H58   S    
C5    C11   A    
C32   N2    A    
C50   H22   S    
O10   C53   S    
C43   N1    A    
C3    C46   A    
C60   H43   S    
C1    O1    A    
Cu1   O1    S    
C32   C33   A    
C57   H39   S    
C2    C3    A    
C25   C26   A    
C62   H52   S    
C12   C44   S    
C51   H27   S    
Cu2   O6    S    
O9    C49   S    
C38   C39   A    
C64   H55   S    
C14   H13   S    
Cu2   O4    S    
C36   C38   A    
C1    C30   S    
C33   C35   A    
C31   C39   A    
C37   C41   A    
C56   H33   S    
O13   C65   S    
C43   H7    S    
C7    O9    S    
C49   H18   S    
C44   C48   A    
C20   C21   A    
C64   H54   S    
C50   H20   S    
C21   C24   A    
C57   H38   S    
C66   H60   S    
Cu1   O5    S    
C32   H9    S    
C48   H16   S    
C21   C22   A    
C58   H42   S    
C63   C64   S    
C34   O7    A    
C61   H48   S    
