data_str_m9_o11_o2_f0_sra.sym.182
_audit_creation_date              2012-12-11T14:29:32-0500
_audit_creation_method            fapswitch 2.2
_symmetry_space_group_name_H-M    P1
_symmetry_Int_Tables_number       1
_space_group_crystal_system       triclinic
_cell_length_a                    6.9283
_cell_length_b                    14.819194
_cell_length_c                    16.265281
_cell_angle_alpha                 90.376037
_cell_angle_beta                  89.656799
_cell_angle_gamma                 89.964454
_cell_volume                      1669.9197436

loop_
_atom_site_label
_atom_site_type_symbol
_atom_type_description
_atom_site_fract_x
_atom_site_fract_y
_atom_site_fract_z
_atom_type_partial_charge
O1    O     O_R   0.494400 0.416610 0.413880 -0.546847
O2    O     O_R   0.823920 0.406790 0.585520 -0.552648
O3    O     O_R   0.994250 0.583390 0.586120 -0.542117
C1    C     C_R   0.654053 0.387360 0.615241 0.690870
O4    O     O_R   0.824110 0.405730 0.414490 -0.511929
O5    O     O_R   0.994440 0.582310 0.413870 -0.507807
C2    C     C_R   0.656028 0.384853 0.385507 0.761401
O6    O     O_R   0.494210 0.417690 0.586130 -0.543268
O7    O     O_3   0.660810 0.557940 0.500000 -0.364458
V1    V     V_3+5 0.935650 0.489250 0.500000 1.468465
O8    O     O_R   0.324160 0.593210 0.414480 -0.552320
C3    C     C_R   0.154817 0.615048 0.386164 0.760966
O9    O     O_R   0.323970 0.594270 0.585510 -0.542999
C4    C     C_R   0.154648 0.616023 0.613823 0.680316
V2    V     V_3+5 0.435660 0.510750 0.500000 1.431782
O10   O     O_3   0.160630 0.442060 0.500000 -0.370553
C5    C     C_R   0.045866 0.561645 0.775898 -0.164893
C6    C     C_R   0.003008 0.529015 0.853609 0.181799
C7    C     C_R   0.018317 0.586246 0.920979 -0.102675
C8    C     C_R   0.064910 0.677093 0.911569 0.151172
C9    C     C_R   0.092580 0.715264 0.831111 -0.000904
C10   C     C_R   0.092786 0.653529 0.762909 -0.000000
C11   C     C_R   0.121069 0.810177 0.815897 -0.171151
C12   C     C_R   0.159171 0.840152 0.733392 0.071804
C13   C     C_R   0.180295 0.775025 0.668604 0.030136
C14   C     C_R   0.143248 0.682711 0.682962 -0.138784
C15   C     C_R   0.174851 0.933634 0.711774 0.190093
C16   C     C_R   0.227417 0.958773 0.631818 -0.165941
C17   C     C_R   0.257944 0.894487 0.571204 -0.153280
C18   C     C_R   0.231569 0.803964 0.588615 -0.143179
H1    H     H_    0.250287 0.757101 0.537949 0.108079
C19   C     C_2   0.979144 0.710409 0.282462 0.229133
C20   C     C_2   0.145546 0.683170 0.319280 -0.296318
C21   C     C_2   0.972224 0.779092 0.215242 -0.187684
C22   C     C_2   0.126341 0.816927 0.178583 -0.304362
H2    H     H_    0.829351 0.798399 0.194474 0.140601
H3    H     H_    0.271375 0.799035 0.196743 0.125437
C23   C     C_2   0.779606 0.223063 0.791651 0.245390
C24   C     C_2   0.621646 0.173429 0.812177 -0.271802
C25   C     C_2   0.784094 0.278525 0.715254 -0.173312
C26   C     C_2   0.635744 0.329602 0.689074 0.017339
C27   C     C_2   0.771184 0.214240 0.209071 -0.181151
C28   C     C_2   0.608973 0.170444 0.185832 0.028561
C29   C     C_2   0.791040 0.271564 0.284585 0.229803
C30   C     C_2   0.644313 0.323561 0.313509 -0.254973
O11   O     O_R   0.770210 0.079270 0.910680 -0.518975
O12   O     O_R   0.440150 0.091160 0.082270 -0.544787
O13   O     O_R   0.269970 0.914530 0.082860 -0.548836
C31   C     C_R   0.607725 0.111292 0.111874 0.698758
O14   O     O_R   0.440480 0.090100 0.911240 -0.543826
O15   O     O_R   0.270310 0.913460 0.910610 -0.533976
C32   C     C_R   0.610565 0.111896 0.883338 0.761210
O16   O     O_R   0.769870 0.080340 0.082930 -0.546295
O17   O     O_3   0.603660 0.938980 0.996790 -0.378217
V3    V     V_3+5 0.328750 0.007610 0.996740 1.424909
O18   O     O_R   0.940600 0.902510 0.911180 -0.539528
C33   C     C_R   0.110174 0.878204 0.884438 0.786894
O19   O     O_R   0.940270 0.903570 0.082200 -0.550594
C34   C     C_R   0.109287 0.883917 0.111894 0.736425
V4    V     V_3+5 0.828770 0.986010 0.996670 1.432782
O20   O     O_3   0.103730 0.054750 0.996710 -0.361460
H4    H     H_    0.296982 0.915098 0.509562 0.123191
H5    H     H_    0.282907 0.711381 0.300677 0.087682
N1    N     N_3   0.948724 0.222718 0.842770 -0.633496
H6    H     H_    0.045696 0.271885 0.822520 0.250721
H7    H     H_    0.020375 0.161647 0.833627 0.237371
H8    H     H_    0.495585 0.174482 0.773005 0.120374
H9    H     H_    0.920921 0.281401 0.682387 0.101689
N2    N     N_3   0.460048 0.334533 0.736414 -0.665230
H10   H     H_    0.436946 0.401889 0.753360 0.236542
H11   H     H_    0.345797 0.314266 0.698873 0.225731
H12   H     H_    0.902224 0.204207 0.173102 0.108749
N3    N     N_3   0.437883 0.174080 0.236080 -0.679539
H13   H     H_    0.324985 0.198906 0.200325 0.224523
H14   H     H_    0.402676 0.108257 0.253383 0.223822
N4    N     N_3   0.975865 0.273856 0.323923 -0.639777
H15   H     H_    0.013120 0.207733 0.339297 0.226744
H16   H     H_    0.077476 0.296987 0.281218 0.218991
H17   H     H_    0.041091 0.513273 0.725881 0.129539
H18   H     H_    0.508540 0.325375 0.280873 0.135337
N5    N     N_3   0.947953 0.436468 0.863172 -0.666984
H19   H     H_    0.930763 0.420838 0.925392 0.235701
H20   H     H_    0.812254 0.428836 0.836277 0.245377
H21   H     H_    0.993446 0.560111 0.982231 0.132400
N6    N     N_3   0.088086 0.725682 0.986654 -0.690037
H22   H     H_    0.970403 0.768523 0.994468 0.244470
H23   H     H_    0.221345 0.758524 0.987100 0.227342
N7    N     N_3   0.126348 0.004642 0.768095 -0.671847
H24   H     H_    0.244001 0.048540 0.771825 0.213988
H25   H     H_    0.009884 0.040094 0.743504 0.211501
H26   H     H_    0.240897 0.029489 0.616288 0.114932
N8    N     N_3   0.797446 0.673123 0.308148 -0.628837
H27   H     H_    0.732469 0.643243 0.256909 0.214109
H28   H     H_    0.708940 0.726171 0.328115 0.212643

loop_
_geom_bond_atom_site_label_1
_geom_bond_atom_site_label_2
_ccdc_geom_bond_type
C28   N3    S    
O13   V3    S    
N3    H13   S    
C7    C8    A    
C12   C15   A    
C1    O6    A    
N5    H19   S    
O12   C31   A    
O17   V4    S    
N6    H22   S    
C2    C30   S    
C26   N2    S    
C16   C17   A    
C22   H3    S    
N4    H16   S    
C21   C22   D    
O5    C3    A    
C18   H1    S    
C1    C26   S    
O19   V4    S    
V2    O10   S    
O11   C32   A    
C5    H17   S    
C6    N5    S    
O18   C33   A    
C22   C34   S    
C6    C7    A    
N2    H11   S    
O17   V3    S    
O8    V2    S    
O14   C32   A    
C11   C12   A    
O15   C33   A    
C30   H18   S    
O7    V1    S    
O15   V3    S    
C24   C32   S    
O9    C4    A    
N3    H14   S    
N2    H10   S    
C27   C29   S    
N8    H28   S    
N5    H20   S    
O16   V4    S    
C23   N1    S    
N6    H23   S    
N4    H15   S    
O4    C2    A    
C28   C31   S    
O19   C34   A    
C4    C14   S    
O18   V4    S    
V4    O20   S    
C19   C21   S    
O2    C1    A    
C17   C18   A    
C20   H5    S    
C8    N6    S    
C8    C9    A    
C27   H12   S    
C5    C6    A    
C12   C13   A    
O3    C4    A    
O1    V2    S    
C25   C26   D    
N7    H25   S    
O6    V2    S    
C9    C11   A    
C10   C14   A    
C27   C28   D    
C7    H21   S    
O2    V1    S    
C29   C30   D    
O13   C34   A    
O12   V3    S    
C13   C18   A    
C11   C33   S    
C17   H4    S    
O11   V4    S    
O1    C2    A    
C24   H8    S    
C5    C10   A    
O5    V1    S    
O8    C3    A    
O14   V3    S    
N1    H6    S    
O9    V2    S    
C13   C14   A    
O4    V1    S    
O3    V1    S    
V1    O10   S    
C19   C20   D    
C23   C25   S    
C23   C24   D    
C31   O16   A    
V3    O20   S    
N8    H27   S    
C16   H26   S    
C21   H2    S    
O7    V2    S    
C15   N7    S    
C19   N8    S    
N7    H24   S    
C25   H9    S    
C15   C16   A    
C29   N4    S    
C3    C20   S    
C9    C10   A    
N1    H7    S    
