data_str_m9_o17_o18_f0_sra.sym.81
_audit_creation_date              2012-12-11T15:18:41-0500
_audit_creation_method            fapswitch 2.2
_symmetry_space_group_name_H-M    P1
_symmetry_Int_Tables_number       1
_space_group_crystal_system       triclinic
_cell_length_a                    6.941005
_cell_length_b                    19.893352
_cell_length_c                    23.836694
_cell_angle_alpha                 93.559538
_cell_angle_beta                  91.368991
_cell_angle_gamma                 88.942176
_cell_volume                      3283.60451079

loop_
_atom_site_label
_atom_site_type_symbol
_atom_type_description
_atom_site_fract_x
_atom_site_fract_y
_atom_site_fract_z
_atom_type_partial_charge
O1    O     O_R   0.620100 0.812200 0.810870 -0.540557
O2    O     O_R   0.379900 0.187800 0.189130 -0.540184
O3    O     O_R   0.296960 0.671650 0.794750 -0.538091
O4    O     O_R   0.703040 0.328350 0.205250 -0.536855
O5    O     O_R   0.120160 0.687800 0.689130 -0.541822
O6    O     O_R   0.879840 0.312200 0.310870 -0.541003
C1    C     C_R   0.468022 0.647121 0.804731 0.696379
C2    C     C_R   0.531975 0.352968 0.195371 0.697624
O7    O     O_R   0.290810 0.810670 0.817290 -0.542286
O8    O     O_R   0.709190 0.189330 0.182710 -0.542188
O9    O     O_R   0.113980 0.827820 0.711840 -0.537007
O10   O     O_R   0.886020 0.172180 0.288160 -0.536668
C3    C     C_R   0.459917 0.831812 0.834247 0.705242
C4    C     C_R   0.540083 0.168187 0.165754 0.706113
O11   O     O_R   0.626290 0.672180 0.788160 -0.535872
O12   O     O_R   0.373710 0.327820 0.211840 -0.536275
O13   O     O_3   0.451520 0.755460 0.715370 -0.367519
O14   O     O_3   0.548480 0.244540 0.284630 -0.369053
V1    V     V_3+5 0.179200 0.748980 0.756420 1.410609
V2    V     V_3+5 0.820800 0.251020 0.243580 1.412046
O15   O     O_R   0.783880 0.828350 0.705250 -0.537218
O16   O     O_R   0.216120 0.171650 0.294750 -0.536890
C5    C     C_R   0.950231 0.852577 0.694700 0.693545
C6    C     C_R   0.049778 0.147389 0.305267 0.695312
O17   O     O_R   0.790030 0.689320 0.682700 -0.537015
O18   O     O_R   0.209970 0.310680 0.317300 -0.540934
C7    C     C_R   0.958102 0.667885 0.666154 0.716427
C8    C     C_R   0.042404 0.332839 0.333828 0.716048
V3    V     V_3+5 0.678400 0.751010 0.743570 1.415228
V4    V     V_3+5 0.321600 0.248990 0.256430 1.408686
O19   O     O_3   0.955950 0.744540 0.784620 -0.368419
O20   O     O_3   0.044050 0.255460 0.215380 -0.367286
C9    C     C_R   0.175116 0.434630 0.392794 0.112226
C10   C     C_R   0.840445 0.562811 0.611928 0.131738
C11   C     C_R   0.035068 0.383775 0.382687 -0.100895
C12   C     C_R   0.963731 0.618661 0.616845 -0.092497
C13   C     C_R   0.881019 0.381694 0.419332 -0.251709
C14   C     C_R   0.093430 0.628496 0.574504 -0.255362
C15   C     C_R   0.863786 0.427579 0.466504 0.070475
C16   C     C_R   0.105813 0.583701 0.526563 0.061941
C17   C     C_R   0.991729 0.482267 0.473044 -0.062615
C18   C     C_R   0.975999 0.529393 0.519922 -0.059673
C19   C     C_R   0.137541 0.489216 0.433110 0.056632
C20   C     C_R   0.832604 0.521663 0.560608 0.059689
C21   C     C_R   0.715760 0.421401 0.505729 0.154973
C22   C     C_R   0.239757 0.594041 0.484053 0.153625
C23   C     C_R   0.688101 0.472556 0.548834 0.144402
C24   C     C_R   0.240017 0.550649 0.434728 0.156142
H1    H     H_    0.776944 0.342258 0.411269 0.143809
H2    H     H_    0.184590 0.672046 0.579816 0.139800
C25   C     C_R   0.949691 0.914049 0.663029 -0.042951
C26   C     C_R   0.050336 0.085882 0.336908 -0.043713
C27   C     C_R   0.873759 0.032850 0.659838 -0.161667
C28   C     C_R   0.126323 0.967071 0.340075 -0.161406
C29   C     C_R   0.889411 0.974990 0.689674 -0.167872
C30   C     C_R   0.110692 0.024952 0.310255 -0.167890
C31   C     C_R   0.993775 0.911265 0.605553 -0.214460
C32   C     C_R   0.006182 0.088627 0.394374 -0.214620
C33   C     C_R   0.975417 0.969581 0.573657 0.086598
C34   C     C_R   0.024549 0.030299 0.426257 0.086588
C35   C     C_R   0.914626 0.030680 0.602355 0.139381
C36   C     C_R   0.085385 0.969210 0.397554 0.139486
C37   C     C_R   0.012304 0.969456 0.514488 0.058113
C38   C     C_R   0.987642 0.030411 0.485421 0.057897
C39   C     C_R   0.927556 0.089423 0.516528 -0.186870
C40   C     C_R   0.072393 0.910443 0.483379 -0.186668
C41   C     C_R   0.892419 0.089364 0.573606 -0.201577
C42   C     C_R   0.107570 0.910514 0.426299 -0.201564
H3    H     H_    0.845898 0.136035 0.595521 0.122881
H4    H     H_    0.154112 0.863846 0.404382 0.122543
H5    H     H_    0.963082 0.137170 0.412923 0.093079
H6    H     H_    0.036815 0.862711 0.587007 0.092767
H7    H     H_    0.147169 0.022333 0.266213 0.105723
H8    H     H_    0.852997 0.977632 0.733721 0.105681
H9    H     H_    0.826598 0.079456 0.681688 0.112820
H10   H     H_    0.173528 0.920477 0.318218 0.112864
H11   H     H_    0.905467 0.136996 0.497964 0.122144
H12   H     H_    0.094470 0.862867 0.501945 0.121622
C43   C     C_R   0.484347 0.585770 0.836178 -0.039739
C44   C     C_R   0.515470 0.414381 0.163988 -0.041323
C45   C     C_R   0.542478 0.465667 0.836196 -0.159348
C46   C     C_R   0.454877 0.534365 0.163922 -0.159521
C47   C     C_R   0.519432 0.523890 0.807148 -0.175903
C48   C     C_R   0.477671 0.476125 0.192964 -0.169524
C49   C     C_R   0.471167 0.589133 0.895038 -0.213975
C50   C     C_R   0.530501 0.411152 0.105179 -0.214423
C51   C     C_R   0.495542 0.530371 0.925949 0.086652
C52   C     C_R   0.505250 0.469866 0.074251 0.086738
C53   C     C_R   0.531818 0.468321 0.895011 0.140336
C54   C     C_R   0.467473 0.531826 0.105155 0.139267
C55   C     C_R   0.486505 0.530897 0.986144 0.057699
C56   C     C_R   0.514521 0.469354 0.014061 0.057945
C57   C     C_R   0.550056 0.409382 0.980847 -0.187469
C58   C     C_R   0.450358 0.590834 0.019343 -0.187406
C59   C     C_R   0.558099 0.409087 0.922731 -0.201902
C60   C     C_R   0.441256 0.591065 0.077436 -0.201487
H13   H     H_    0.585851 0.361669 0.899133 0.122898
H14   H     H_    0.412517 0.638426 0.101012 0.123051
H15   H     H_    0.559012 0.362075 0.085147 0.093237
H16   H     H_    0.444724 0.638329 0.915112 0.092792
H17   H     H_    0.466344 0.479363 0.238233 0.101869
H18   H     H_    0.528398 0.520587 0.761831 0.112930
H19   H     H_    0.569756 0.418284 0.812533 0.112535
H20   H     H_    0.425940 0.581656 0.187543 0.113517
H21   H     H_    0.572434 0.361245 0.998423 0.123718
H22   H     H_    0.427557 0.638944 0.001754 0.123742
C61   C     C_R   0.677700 0.071498 0.106270 -0.215439
C62   C     C_R   0.322300 0.928499 0.893732 -0.215424
C63   C     C_R   0.528860 0.119073 0.116284 -0.085228
C64   C     C_R   0.471139 0.880924 0.883718 -0.084966
C65   C     C_R   0.367861 0.119013 0.079391 -0.218510
C66   C     C_R   0.632136 0.880983 0.920611 -0.218593
C67   C     C_R   0.354133 0.072275 0.032329 0.088259
C68   C     C_R   0.645866 0.927721 0.967673 0.088262
C69   C     C_R   0.504960 0.024010 0.023177 0.007305
C70   C     C_R   0.495039 0.975986 0.976825 0.007295
C71   C     C_R   0.666327 0.023839 0.060339 0.066595
C72   C     C_R   0.333672 0.976157 0.939663 0.066546
C73   C     C_R   0.194093 0.072433 0.994150 0.151666
C74   C     C_R   0.805908 0.927563 0.005852 0.151663
C75   C     C_R   0.185476 0.024095 0.948645 -0.173130
C76   C     C_R   0.814525 0.975902 0.051356 -0.173080
H23   H     H_    0.801777 0.071019 0.134784 0.119650
H24   H     H_    0.198224 0.928979 0.865217 0.119664
H25   H     H_    0.254985 0.156331 0.087518 0.137111
H26   H     H_    0.745011 0.843664 0.912485 0.137030
H27   H     H_    0.062366 0.023970 0.919755 0.126770
H28   H     H_    0.937637 0.976027 0.080246 0.126793
C77   C     C_3   0.370688 0.426308 0.365760 -0.747923
H29   H     H_    0.432650 0.375628 0.372246 0.212449
H30   H     H_    0.357318 0.433559 0.320115 0.195666
H31   H     H_    0.480098 0.460392 0.385616 0.215285
C78   C     C_3   0.748151 0.541361 0.664872 -0.775027
H32   H     H_    0.842758 0.552903 0.702344 0.192720
H33   H     H_    0.608129 0.568155 0.671449 0.207741
H34   H     H_    0.730128 0.486065 0.663723 0.208968
C79   C     C_3   0.032984 0.124113 0.000337 -0.790795
H35   H     H_    0.966620 0.121828 0.041964 0.215225
H36   H     H_    0.090689 0.175253 0.996448 0.204540
H37   H     H_    0.917646 0.115594 0.967686 0.211776
C80   C     C_3   0.967021 0.875885 0.999664 -0.790706
H38   H     H_    0.033362 0.878165 0.958032 0.215199
H39   H     H_    0.082377 0.884411 0.032308 0.211802
H40   H     H_    0.909326 0.824746 0.003561 0.204550
C81   C     C_3   0.590516 0.359399 0.502861 -0.804859
H41   H     H_    0.506189 0.355026 0.541324 0.220733
H42   H     H_    0.488438 0.360286 0.466548 0.214520
H43   H     H_    0.682390 0.313119 0.499099 0.200605
C82   C     C_3   0.381477 0.651437 0.491254 -0.788746
H44   H     H_    0.490150 0.650567 0.457964 0.221277
H45   H     H_    0.302600 0.700522 0.491475 0.200496
H46   H     H_    0.464788 0.647764 0.531351 0.207072
C83   C     C_3   0.489915 0.480937 0.574160 -0.765916
H47   H     H_    0.376507 0.467716 0.541949 0.220723
H48   H     H_    0.474985 0.447867 0.609539 0.202255
H49   H     H_    0.458692 0.534125 0.588064 0.219800
C84   C     C_3   0.316159 0.577039 0.381220 -0.795819
H50   H     H_    0.269273 0.630356 0.377819 0.213563
H51   H     H_    0.476000 0.574217 0.381037 0.208515
H52   H     H_    0.256475 0.549628 0.342948 0.215419

loop_
_geom_bond_atom_site_label_1
_geom_bond_atom_site_label_2
_ccdc_geom_bond_type
C6    C26   S    
C4    C63   S    
C40   C42   A    
C84   H50   S    
C47   H18   S    
C51   C55   A    
C61   C63   A    
C17   C18   A    
C61   H23   S    
O4    C2    A    
V1    O19   S    
C66   C68   A    
C81   H41   S    
C15   C17   A    
C25   C29   A    
C16   C22   A    
C79   H36   S    
O9    V1    S    
C21   C81   S    
C11   C13   A    
C75   H27   S    
O3    C1    A    
C82   H45   S    
C45   H19   S    
C50   C52   A    
C32   H5    S    
C31   C33   A    
O12   V4    S    
C69   C70   A    
O13   V3    S    
C34   C36   A    
C21   C23   A    
O7    C3    A    
C44   C50   A    
C57   H21   S    
O5    C7    A    
C29   H8    S    
C27   C35   A    
O7    V1    S    
O6    C8    A    
C52   C56   A    
C8    C11   S    
O8    V2    S    
C69   C71   A    
C60   H14   S    
C65   H25   S    
C78   H34   S    
O3    V1    S    
C25   C31   A    
C83   H48   S    
C19   C24   A    
C66   H26   S    
C20   C23   A    
C44   C48   A    
C15   C21   A    
C77   H31   S    
C45   C53   A    
C27   C29   A    
C37   C40   A    
C2    O12   A    
C67   C73   A    
C61   C71   A    
C48   H17   S    
C17   C19   A    
C27   H9    S    
C18   C20   A    
C62   H24   S    
C81   H42   S    
C74   C76   A    
C34   C38   A    
O11   V3    S    
C22   C24   A    
C73   C75   A    
O17   V3    S    
C40   H12   S    
C79   H37   S    
C28   C30   A    
C33   C35   A    
C39   H11   S    
C14   H2    S    
C49   C51   A    
C73   C79   S    
C62   C72   A    
C10   C20   A    
O8    C4    A    
C82   H46   S    
C55   C56   A    
O13   V1    S    
C1    O11   A    
C23   C83   S    
C10   C78   S    
C39   C41   A    
O15   V3    S    
C68   C70   A    
C41   H3    S    
C80   H39   S    
C9    C19   A    
C53   C59   A    
C71   C76   A    
C3    C64   S    
V4    O20   S    
C13   H1    S    
C35   C41   A    
C24   C84   S    
C5    C25   S    
C2    C44   S    
O10   V2    S    
O1    V3    S    
C65   C67   A    
C83   H49   S    
C58   C60   A    
C50   H15   S    
C26   C32   A    
C70   C72   A    
C28   H10   S    
C42   H4    S    
C52   C54   A    
O18   V4    S    
C84   H52   S    
C46   C48   A    
O15   C5    A    
O14   V4    S    
O16   C6    A    
C80   H40   S    
O1    C3    A    
C12   C14   A    
C43   C49   A    
C81   H43   S    
C1    C43   S    
C77   H29   S    
V2    O20   S    
C9    C77   S    
C58   H22   S    
C30   H7    S    
O16   V4    S    
O18   C8    A    
C74   C80   S    
C16   C18   A    
C45   C47   A    
C84   H51   S    
C59   H13   S    
C54   C60   A    
O5    V1    S    
O4    V2    S    
C7    C12   S    
O17   C7    A    
O6    V2    S    
C79   H35   S    
O10   C6    A    
C33   C37   A    
C46   C54   A    
C36   C42   A    
O2    V4    S    
C38   C39   A    
C63   C65   A    
V3    O19   S    
C49   H16   S    
C82   H44   S    
C55   C58   A    
C14   C16   A    
C78   H32   S    
O9    C5    A    
C56   C57   A    
C9    C11   A    
C10   C12   A    
C62   C64   A    
O14   V2    S    
C31   H6    S    
C76   H28   S    
O2    C4    A    
C64   C66   A    
C37   C38   A    
C43   C47   A    
C13   C15   A    
C22   C82   S    
C57   C59   A    
C78   H33   S    
C51   C53   A    
C46   H20   S    
C28   C36   A    
C77   H30   S    
C83   H47   S    
C80   H38   S    
C32   C34   A    
C72   C75   A    
C68   C74   A    
C26   C30   A    
C67   C69   A    
