data_str_m9_o18_o19_f0_sra.sym.63
_audit_creation_date              2012-12-11T15:27:41-0500
_audit_creation_method            fapswitch 2.2
_symmetry_space_group_name_H-M    P1
_symmetry_Int_Tables_number       1
_space_group_crystal_system       triclinic
_cell_length_a                    23.21102
_cell_length_b                    7.302617
_cell_length_c                    15.117808
_cell_angle_alpha                 90.001759
_cell_angle_beta                  108.141944
_cell_angle_gamma                 89.9998
_cell_volume                      2435.10021774

loop_
_atom_site_label
_atom_site_type_symbol
_atom_type_description
_atom_site_fract_x
_atom_site_fract_y
_atom_site_fract_z
_atom_type_partial_charge
O1    O     O_R   0.711000 0.648610 0.341170 -0.539415
O2    O     O_R   0.289000 0.351390 0.658830 -0.535870
O3    O     O_R   0.789000 0.148610 0.158830 -0.535918
O4    O     O_R   0.211000 0.851390 0.841170 -0.539357
O5    O     O_R   0.829650 0.322030 0.336650 -0.537689
O6    O     O_R   0.170350 0.677970 0.663350 -0.538478
O7    O     O_R   0.670350 0.822030 0.163350 -0.538463
O8    O     O_R   0.329650 0.177970 0.836650 -0.537714
C1    C     C_R   0.854266 0.485804 0.356792 0.739495
C2    C     C_R   0.145734 0.514196 0.643209 0.739193
C3    C     C_R   0.645734 0.985801 0.143208 0.739256
C4    C     C_R   0.354266 0.014198 0.856793 0.739522
O9    O     O_R   0.713950 0.319280 0.352070 -0.538314
O10   O     O_R   0.286050 0.680720 0.647930 -0.540742
O11   O     O_R   0.786050 0.819280 0.147930 -0.540708
O12   O     O_R   0.213950 0.180720 0.852070 -0.538409
O13   O     O_R   0.672470 0.142870 0.174360 -0.535239
O14   O     O_R   0.327530 0.857130 0.825640 -0.536307
O15   O     O_R   0.827530 0.642870 0.325640 -0.536332
O16   O     O_R   0.172470 0.357130 0.674360 -0.535225
C5    C     C_R   0.701913 0.487610 0.376151 0.761202
C6    C     C_R   0.298092 0.512519 0.623852 0.761518
C7    C     C_R   0.798114 0.987469 0.123872 0.761505
C8    C     C_R   0.201909 0.012392 0.876151 0.761151
O17   O     O_3   0.736530 0.478650 0.191680 -0.380307
O18   O     O_3   0.263470 0.521350 0.808320 -0.381801
O19   O     O_3   0.763470 0.978650 0.308320 -0.381780
O20   O     O_3   0.236530 0.021350 0.691680 -0.380266
V1    V     V_3+5 0.752500 0.206170 0.260820 1.479747
V2    V     V_3+5 0.247500 0.793830 0.739180 1.473774
V3    V     V_3+5 0.747500 0.706170 0.239180 1.473677
V4    V     V_3+5 0.252500 0.293830 0.760820 1.479651
C9    C     C_R   0.826776 0.995144 0.050405 -0.056442
C10   C     C_R   0.173315 0.002803 0.949656 -0.057834
C11   C     C_R   0.673315 0.497147 0.449648 -0.057895
C12   C     C_R   0.326750 0.504761 0.550391 -0.056407
C13   C     C_R   0.820652 0.016005 0.887184 -0.084484
C14   C     C_R   0.179566 0.979527 0.112875 -0.085733
C15   C     C_R   0.679552 0.519273 0.612888 -0.085877
C16   C     C_R   0.320653 0.482733 0.387225 -0.084135
C17   C     C_R   0.791649 0.012424 0.957126 0.289023
C18   C     C_R   0.208602 0.992717 0.043162 0.289872
C19   C     C_R   0.708599 0.506579 0.543174 0.290230
C20   C     C_R   0.291649 0.486592 0.457153 0.288720
C21   C     C_R   0.889651 0.987148 0.075926 -0.296901
C22   C     C_R   0.110396 0.004728 0.924052 -0.298178
C23   C     C_R   0.610394 0.495504 0.424018 -0.298094
C24   C     C_R   0.389617 0.513099 0.575911 -0.296705
C25   C     C_R   0.920474 0.988402 0.008990 0.075314
C26   C     C_R   0.079518 0.988657 0.990538 0.075418
C27   C     C_R   0.579508 0.510952 0.490524 0.075537
C28   C     C_R   0.420460 0.511123 0.509004 0.075244
C29   C     C_R   0.885180 0.001048 0.913416 0.063220
C30   C     C_R   0.114845 0.974702 0.086040 0.060498
C31   C     C_R   0.614838 0.524262 0.586048 0.060476
C32   C     C_R   0.385172 0.498038 0.413441 0.063388
C33   C     C_R   0.985345 0.977246 0.034552 0.081978
C34   C     C_R   0.014542 0.985932 0.964539 0.082073
C35   C     C_R   0.514530 0.513575 0.464540 0.082067
C36   C     C_R   0.485338 0.522050 0.534574 0.081984
C37   C     C_R   0.977746 0.987056 0.870605 -0.200044
C38   C     C_R   0.021975 0.953483 0.127720 -0.199438
C39   C     C_R   0.521991 0.545053 0.627790 -0.199223
C40   C     C_R   0.477723 0.512301 0.370609 -0.200055
C41   C     C_R   0.915089 0.992275 0.846006 -0.139884
C42   C     C_R   0.084657 0.950014 0.152339 -0.141882
C43   C     C_R   0.584668 0.548327 0.652406 -0.142003
C44   C     C_R   0.415071 0.506736 0.346022 -0.139738
H1    H     H_    0.890607 0.987427 0.772488 0.172984
H2    H     H_    0.108903 0.925681 0.224863 0.173474
H3    H     H_    0.608935 0.571930 0.724994 0.173157
H4    H     H_    0.390580 0.511310 0.272502 0.173018
H5    H     H_    0.087123 0.020246 0.850809 0.114732
H6    H     H_    0.912944 0.981308 0.149541 0.114230
H7    H     H_    0.412869 0.519876 0.649512 0.114110
H8    H     H_    0.587131 0.480679 0.350737 0.114668
H9    H     H_    0.995622 0.979963 0.813057 0.127922
H10   H     H_    0.003891 0.932937 0.184381 0.128201
H11   H     H_    0.503952 0.564802 0.684550 0.128149
H12   H     H_    0.495580 0.519273 0.313042 0.127920
C45   C     C_1   0.416757 0.006967 0.918756 -0.168842
C46   C     C_1   0.583242 0.993029 0.081246 -0.168442
C47   C     C_1   0.083242 0.506964 0.581246 -0.168399
C48   C     C_1   0.916757 0.493040 0.418755 -0.168835
C49   C     C_1   0.469140 0.002393 0.969973 0.012055
C50   C     C_1   0.530859 0.997599 0.030031 0.012192
C51   C     C_1   0.030859 0.502398 0.530030 0.012207
C52   C     C_1   0.969140 0.497611 0.469972 0.012055
O21   O     O_3   0.270985 0.998327 0.062783 -0.651382
H13   H     H_    0.290767 0.029998 0.128805 0.313817
O22   O     O_3   0.729474 0.027407 0.937998 -0.651356
H14   H     H_    0.710891 0.080761 0.875538 0.311453
O23   O     O_3   0.229490 0.471115 0.438025 -0.651370
H15   H     H_    0.211047 0.416242 0.375876 0.311569
O24   O     O_3   0.770982 0.500752 0.562797 -0.651297
H16   H     H_    0.790773 0.469374 0.628853 0.313617
C53   C     C_2   0.782862 0.031901 0.787962 0.386343
H17   H     H_    0.741958 0.950566 0.761706 0.041842
O25   O     O_2   0.795352 0.142202 0.736065 -0.523883
C54   C     C_2   0.217406 0.967140 0.212223 0.392412
H18   H     H_    0.256398 0.876678 0.232447 0.037000
O26   O     O_2   0.207204 0.064138 0.271416 -0.521956
C55   C     C_2   0.717354 0.530662 0.712277 0.392804
H19   H     H_    0.756268 0.621408 0.732836 0.036417
O27   O     O_2   0.707200 0.432505 0.771094 -0.521663
C56   C     C_2   0.282855 0.466165 0.288037 0.385180
H20   H     H_    0.241839 0.546986 0.261719 0.042724
O28   O     O_2   0.295456 0.355832 0.236255 -0.524281

loop_
_geom_bond_atom_site_label_1
_geom_bond_atom_site_label_2
_ccdc_geom_bond_type
O17   V3    S    
C47   C51   T    
C51   C52   S    
O1    C5    A    
O23   H15   S    
O19   V1    S    
C9    C21   A    
O3    C7    A    
O24   H16   S    
C10   C18   A    
O15   V3    S    
C13   C53   S    
C53   H17   S    
C25   C33   A    
C33   C38   A    
C39   H11   S    
C49   C50   S    
O7    C3    A    
C35   C40   A    
C26   C30   A    
C36   C39   A    
C40   C44   A    
O9    V1    S    
C23   H8    S    
C14   C18   A    
O4    C8    A    
C41   H1    S    
C56   H20   S    
C2    C47   S    
O1    V3    S    
O13   V1    S    
O2    V4    S    
O3    V1    S    
C20   O23   S    
C28   C36   A    
C1    O15   A    
C15   C31   A    
C2    O16   A    
C16   C32   A    
O2    C6    A    
C19   O24   S    
C10   C22   A    
C11   C19   A    
C16   C20   A    
C43   H3    S    
C44   H4    S    
C13   C29   A    
C34   C37   A    
O11   C7    A    
C11   C23   A    
C35   C36   A    
O12   C8    A    
C40   H12   S    
C24   H7    S    
O10   V2    S    
C53   O25   D    
O5    V1    S    
C3    C46   S    
C39   C43   A    
O7    V3    S    
C38   C42   A    
O8    V4    S    
C14   C54   S    
C37   H9    S    
O22   H14   S    
O18   V4    S    
C15   C19   A    
C7    C9    S    
C46   C50   T    
C8    C10   S    
C21   H6    S    
C26   C34   A    
O5    C1    A    
C31   C43   A    
C14   C30   A    
C21   C25   A    
O8    C4    A    
C54   O26   D    
O9    C5    A    
C55   O27   D    
O11   V3    S    
O14   V2    S    
O6    V2    S    
C12   C20   A    
C27   C35   A    
C29   C41   A    
C16   C56   S    
O16   V4    S    
C3    O13   A    
C17   O22   S    
C38   H10   S    
C48   C52   T    
O6    C2    A    
C23   C27   A    
C15   C55   S    
C5    C11   S    
O12   V4    S    
C6    C12   S    
C22   C26   A    
C18   O21   S    
C9    C17   A    
O10   C6    A    
O20   V2    S    
C32   C44   A    
C33   C34   A    
C42   H2    S    
C56   O28   D    
C25   C29   A    
C54   H18   S    
C4    C45   S    
C12   C24   A    
C27   C31   A    
C13   C17   A    
C45   C49   T    
C1    C48   S    
C37   C41   A    
C24   C28   A    
C4    O14   A    
C55   H19   S    
O21   H13   S    
C30   C42   A    
C22   H5    S    
O4    V2    S    
C28   C32   A    
