data_str_m12_o9_o11_f0_bcu.sym.34
_audit_creation_date              2012-12-11T17:39:33-0500
_audit_creation_method            fapswitch 2.2
_symmetry_space_group_name_H-M    P1
_symmetry_Int_Tables_number       1
_space_group_crystal_system       triclinic
_cell_length_a                    15.197484
_cell_length_b                    15.161025
_cell_length_c                    14.954214
_cell_angle_alpha                 108.6383
_cell_angle_beta                  110.579263
_cell_angle_gamma                 109.839914
_cell_volume                      2630.55781876

loop_
_atom_site_label
_atom_site_type_symbol
_atom_type_description
_atom_site_fract_x
_atom_site_fract_y
_atom_site_fract_z
_atom_type_partial_charge
C1    C     C_R   0.910095 0.974468 0.721749 -0.122962
C2    C     C_R   0.910503 0.685916 0.443996 -0.125083
C3    C     C_R   0.730456 0.779422 0.185172 0.526392
C4    C     C_R   0.088865 0.298570 0.496851 -0.139418
C5    C     C_R   0.301954 0.003864 0.595155 -0.177044
C6    C     C_R   0.685356 0.676799 0.171554 -0.016585
C7    C     C_R   0.359472 0.056267 0.557434 0.075568
C8    C     C_R   0.002984 0.678930 0.456853 0.050160
C9    C     C_R   0.998167 0.051134 0.190026 0.001868
C10   C     C_R   0.376442 0.621231 0.265645 -0.096381
C11   C     C_R   0.408543 0.730718 0.314138 -0.157030
C12   C     C_R   0.996858 0.303441 0.441693 0.081202
C13   C     C_R   0.460260 0.793646 0.428720 0.135736
C14   C     C_R   0.478004 0.745432 0.494240 -0.201033
C15   C     C_R   0.446207 0.635903 0.445537 -0.124684
C16   C     C_R   0.301747 0.204502 0.799132 -0.134178
C17   C     C_R   0.395520 0.573802 0.331228 -0.078104
C18   C     C_R   0.425251 0.936044 0.511171 -0.244670
C19   C     C_R   0.443430 0.041453 0.546935 0.066526
C20   C     C_R   0.529479 0.122097 0.553584 0.009314
C21   C     C_R   0.596325 0.095126 0.523431 -0.218263
C22   C     C_R   0.576684 0.989456 0.485681 0.058865
C23   C     C_R   0.367065 0.294035 0.801073 0.137555
C24   C     C_R   0.490585 0.908561 0.478804 0.007971
C25   C     C_R   0.516169 0.265257 0.512634 -0.119882
C26   C     C_R   0.550769 0.373966 0.545280 -0.067857
C27   C     C_R   0.625141 0.452830 0.655845 -0.080613
C28   C     C_R   0.712075 0.020872 0.427179 -0.150517
C29   C     C_R   0.663128 0.422798 0.734214 -0.125077
C30   C     C_R   0.626536 0.313696 0.702013 -0.125510
C31   C     C_R   0.553093 0.234360 0.590759 0.092011
C32   C     C_R   0.644416 0.114976 0.144030 0.628672
C33   C     C_R   0.751768 0.199946 0.194850 -0.293041
C34   C     C_R   0.656349 0.971414 0.468156 0.070723
C35   C     C_R   0.792745 0.298060 0.287576 -0.049184
C36   C     C_R   0.724493 0.312664 0.326740 -0.211823
C37   C     C_R   0.616131 0.231869 0.273763 0.541771
C38   C     C_R   0.574902 0.134358 0.180172 -0.517012
C39   C     C_R   0.917140 0.483593 0.348513 -0.248323
C40   C     C_R   0.304734 0.295805 0.708840 -0.108810
C41   C     C_R   0.011166 0.582226 0.431970 0.056611
C42   C     C_R   0.104740 0.584725 0.501412 0.062857
C43   C     C_R   0.099847 0.488609 0.486346 -0.256364
C44   C     C_R   0.999517 0.390996 0.418633 0.058698
C45   C     C_R   0.722006 0.687353 0.275351 -0.203104
C46   C     C_R   0.906320 0.388028 0.346458 0.107755
C47   C     C_R   0.299534 0.733160 0.607294 -0.206374
C48   C     C_R   0.385283 0.833712 0.698115 -0.264699
C49   C     C_R   0.374362 0.883463 0.786703 -0.171129
C50   C     C_R   0.277663 0.833097 0.785683 0.571384
C51   C     C_R   0.191272 0.731753 0.694119 -0.327894
C52   C     C_R   0.706179 0.922506 0.511796 -0.128133
C53   C     C_R   0.201057 0.683179 0.603555 0.088822
C54   C     C_2   0.545919 0.450113 0.882203 -0.149742
C55   C     C_2   0.483059 0.364086 0.882355 -0.211855
C56   C     C_R   0.298348 0.087300 0.496496 -0.116737
C57   C     C_2   0.630932 0.548307 0.988020 -0.115149
C58   C     C_2   0.608573 0.577014 0.068297 -0.240744
C59   C     C_R   0.391799 0.275926 0.115501 -0.079559
C60   C     C_R   0.289038 0.214513 0.097433 -0.206810
C61   C     C_R   0.205420 0.236297 0.054945 -0.076238
C62   C     C_R   0.227222 0.322636 0.031581 0.530450
C63   C     C_R   0.331665 0.383656 0.051197 -0.163574
C64   C     C_R   0.907288 0.211210 0.413604 -0.137820
C65   C     C_R   0.413786 0.361436 0.094748 -0.235362
C66   C     C_R   0.090515 0.157550 0.122013 -0.220520
C67   C     C_R   0.090711 0.782015 0.519190 -0.114300
C68   C     C_R   0.994260 0.078355 0.103508 0.063939
C69   C     C_R   0.897097 0.024071 0.000211 0.015793
C70   C     C_R   0.900982 0.050847 0.920808 -0.236990
C71   C     C_R   0.001368 0.099716 0.927919 0.058816
C72   C     C_R   0.096864 0.165559 0.033754 0.032645
C73   C     C_R   0.812580 0.829118 0.943852 -0.160841
C74   C     C_R   0.721054 0.725271 0.880091 -0.236925
C75   C     C_R   0.615226 0.708090 0.828592 0.638927
C76   C     C_R   0.092195 0.065889 0.812861 -0.099675
C77   C     C_R   0.603576 0.799965 0.846804 -0.325440
C78   C     C_R   0.909587 0.001563 0.199151 -0.040724
C79   C     C_R   0.695330 0.904027 0.909480 -0.141278
C80   C     C_R   0.800560 0.919256 0.957343 0.112841
C81   C     C_R   0.002634 0.054107 0.825000 0.074498
C82   C     C_3   0.531181 0.924556 0.047286 0.186313
C83   C     C_3   0.564721 0.914493 0.151765 -0.322362
C84   C     C_3   0.494582 0.800543 0.127436 -0.969280
C85   C     C_3   0.423655 0.581836 0.726393 0.146945
C86   C     C_3   0.401954 0.592858 0.821068 -0.353304
C87   C     C_3   0.282244 0.553931 0.783868 -0.960398
C88   C     C_R   0.090817 0.085072 0.286339 -0.130207
H1    H     H_    0.826350 0.939853 0.699896 0.092769
H2    H     H_    0.391440 0.766149 0.262493 0.122298
H3    H     H_    0.171077 0.347176 0.516736 0.082164
H4    H     H_    0.517693 0.792905 0.582827 0.113387
H5    H     H_    0.460607 0.599183 0.496378 0.118488
H6    H     H_    0.355230 0.872649 0.500974 0.142897
H7    H     H_    0.665394 0.157768 0.531577 0.146324
H8    H     H_    0.461297 0.204865 0.426350 0.124363
H9    H     H_    0.521837 0.397244 0.484558 0.127090
H10   H     H_    0.654053 0.537071 0.680023 0.128582
H11   H     H_    0.721692 0.483929 0.819778 0.111904
H12   H     H_    0.318403 0.131381 0.455963 0.088906
H13   H     H_    0.658199 0.291417 0.762882 0.119774
H14   H     H_    0.489773 0.073913 0.138539 0.153679
H15   H     H_    0.329460 0.171384 0.850034 0.111154
H16   H     H_    0.804926 0.187539 0.165795 0.152038
H17   H     H_    0.755873 0.387737 0.399110 0.151530
H18   H     H_    0.846086 0.482299 0.294762 0.137089
H19   H     H_    0.172400 0.494558 0.542744 0.129498
H20   H     H_    0.307558 0.696545 0.537792 0.146331
H21   H     H_    0.460005 0.874268 0.699499 0.150178
H22   H     H_    0.440834 0.962188 0.855708 0.157594
H23   H     H_    0.172811 0.807508 0.537471 0.126234
H24   H     H_    0.693905 0.065075 0.386529 0.094517
H25   H     H_    0.114891 0.692870 0.690824 0.130714
H26   H     H_    0.522706 0.456099 0.808200 0.189938
H27   H     H_    0.512518 0.356366 0.955391 0.149044
H28   H     H_    0.706587 0.601270 0.997215 0.140719
H29   H     H_    0.530439 0.528188 0.056807 0.151450
H30   H     H_    0.495076 0.409806 0.112786 0.133075
H31   H     H_    0.454560 0.256828 0.144462 0.159179
H32   H     H_    0.273653 0.147908 0.113906 0.140540
H33   H     H_    0.349463 0.449541 0.033765 0.136030
H34   H     H_    0.829182 0.988266 0.152538 0.168861
H35   H     H_    0.334910 0.345667 0.676773 0.095404
H36   H     H_    0.163851 0.206740 0.202744 0.124539
H37   H     H_    0.825216 0.011290 0.844140 0.122788
H38   H     H_    0.893165 0.838710 0.977748 0.131655
H39   H     H_    0.733062 0.657207 0.868708 0.117473
H40   H     H_    0.525318 0.793470 0.812004 0.142029
H41   H     H_    0.684504 0.972523 0.916877 0.160295
H42   H     H_    0.679247 0.871761 0.544240 0.104075
H43   H     H_    0.821984 0.182288 0.366087 0.111061
H44   H     H_    0.177386 0.117046 0.874422 0.123263
H45   H     H_    0.174891 0.138946 0.314951 0.089828
H46   H     H_    0.693664 0.623861 0.293984 0.128355
H47   H     H_    0.646744 0.742450 0.034491 0.315426
H48   H     H_    0.517842 0.853357 0.981055 0.150424
H49   H     H_    0.451536 0.920815 0.016873 0.140005
H50   H     H_    0.652008 0.937874 0.191721 0.240592
H51   H     H_    0.553872 0.969650 0.210525 0.179993
H52   H     H_    0.407750 0.778747 0.093136 0.261996
H53   H     H_    0.523911 0.797409 0.204951 0.267100
H54   H     H_    0.500780 0.740327 0.068400 0.269811
H55   H     H_    0.478789 0.185044 0.270340 0.299075
H56   H     H_    0.828707 0.619686 0.404710 0.096297
H57   H     H_    0.195567 0.840361 0.859404 0.310736
H58   H     H_    0.086224 0.312237 0.994811 0.318657
H59   H     H_    0.366394 0.497309 0.657668 0.123217
H60   H     H_    0.404098 0.630750 0.690096 0.107903
H61   H     H_    0.426100 0.545303 0.856578 0.224027
H62   H     H_    0.451574 0.678204 0.886636 0.188336
H63   H     H_    0.255402 0.600404 0.748612 0.272959
H64   H     H_    0.271446 0.566167 0.855720 0.276664
H65   H     H_    0.230789 0.466553 0.721567 0.270078
H66   H     H_    0.330113 0.976703 0.652019 0.125594
H67   H     H_    0.370497 0.488922 0.293482 0.116213
H68   H     H_    0.335846 0.573225 0.177151 0.141299
N1    N     N_R   0.941940 0.944580 0.650780 -0.045120
N2    N     N_R   0.204460 0.150250 0.707090 -0.042202
N3    N     N_R   0.794270 0.003240 0.446420 -0.041982
N4    N     N_R   0.204920 0.207570 0.650770 -0.043277
N5    N     N_R   0.793810 0.945920 0.502740 -0.039571
N6    N     N_R   0.943620 0.152590 0.446420 -0.043828
N7    N     N_R   0.055110 0.000900 0.707100 -0.046385
N8    N     N_R   0.795080 0.792430 0.349230 -0.065996
N9    N     N_R   0.206190 0.054080 0.497260 -0.041118
N10   N     N_R   0.056380 0.847410 0.553580 -0.044408
N11   N     N_R   0.944890 0.999100 0.292900 -0.048479
N12   N     N_R   0.058060 0.055420 0.349220 -0.046240
N13   N     N_R   0.943200 0.791100 0.497260 -0.040510
N14   N     N_R   0.795540 0.849750 0.292910 -0.080280
N15   N     N_R   0.205730 0.996760 0.553580 -0.041866
N16   N     N_R   0.056800 0.208900 0.502740 -0.038070
Ni1   Ni    Ni4+2 0.869690 0.869690 0.500000 0.213343
Ni2   Ni    Ni4+2 0.130310 0.130310 0.500000 0.204445
Ni3   Ni    Ni4+2 0.129250 0.998840 0.629170 0.228075
Ni4   Ni    Ni4+2 0.870750 0.001160 0.370830 0.223384
O1    O     O_3   0.706006 0.808357 0.105512 -0.801180
O2    O     O_3   0.612872 0.016411 0.059602 -0.685325
O3    O     O_3   0.552804 0.250324 0.315844 -0.786099
O4    O     O_3   0.268699 0.886049 0.873125 -0.800070
O5    O     O_3   0.151013 0.351263 0.991648 -0.772404
O6    O     O_3   0.530460 0.600455 0.757856 -0.705355

loop_
_geom_bond_atom_site_label_1
_geom_bond_atom_site_label_2
_ccdc_geom_bond_type
C25   C31   A    
C39   H18   S    
C66   C68   A    
C63   C65   A    
C27   H10   S    
N9    N15   A    
C85   O6    S    
C6    C45   A    
C27   C29   A    
C33   H16   S    
C2    H56   S    
C41   C42   A    
C6    C58   S    
N8    N14   A    
C35   C36   A    
C85   H60   S    
C3    C6    A    
N7    Ni3   S    
C83   H51   S    
C39   C41   A    
N14   Ni4   S    
C85   C86   S    
C28   H24   S    
N12   Ni2   S    
C82   H48   S    
C78   N11   A    
C51   H25   S    
C83   C84   S    
C18   C24   A    
C36   C37   A    
C45   N8    A    
C88   H45   S    
C82   H49   S    
C86   H62   S    
C42   C53   S    
C30   C31   A    
C12   C64   A    
N6    Ni4   S    
C10   C17   A    
C1    C81   A    
C5    H66   S    
C79   H41   S    
C30   H13   S    
C18   C19   A    
C73   C74   A    
C66   C72   A    
C74   H39   S    
C44   C46   A    
C68   C69   A    
C88   N12   A    
C56   N9    A    
C1    H1    S    
C65   H30   S    
C87   H65   S    
C70   C71   A    
C32   C38   A    
C4    C12   A    
C29   C30   A    
N1    N7    A    
C52   N5    A    
C47   C53   A    
C4    H3    S    
C48   H21   S    
C28   C34   A    
C59   C60   A    
C87   H63   S    
C13   C14   A    
N2    N4    A    
C9    C88   A    
C32   O2    S    
C61   C62   A    
C7    C56   A    
C37   O3    S    
C63   H33   S    
N16   Ni2   S    
C57   H28   S    
C77   C79   A    
C5    N15   A    
C22   C34   S    
C74   C75   A    
C29   H11   S    
C16   N2    A    
C8    C41   S    
H47   O1    S    
C64   N6    A    
C86   H61   S    
C10   H68   S    
N11   N12   A    
C5    C7    A    
C23   C40   A    
C86   C87   S    
C21   H7    S    
N9    Ni2   S    
N15   Ni3   S    
C82   C83   S    
C28   N3    A    
C13   C24   S    
C60   C61   A    
C51   C53   A    
C50   O4    S    
C43   C44   A    
N10   Ni3   S    
C37   C38   A    
N5    Ni1   S    
C16   H15   S    
C47   C48   A    
C64   H43   S    
C84   H54   S    
C82   O2    S    
C62   C63   A    
N3    N5    A    
C50   C51   A    
C45   H46   S    
N8    Ni1   S    
C43   H19   S    
C75   C77   A    
C14   H4    S    
C77   H40   S    
C8    C67   A    
C39   C46   A    
C70   H37   S    
C67   H23   S    
C48   C49   A    
C26   H9    S    
C47   H20   S    
C16   C23   A    
C7    C19   S    
N3    Ni4   S    
C26   C27   A    
C18   H6    S    
C66   H36   S    
C42   C43   A    
C56   H12   S    
C17   H67   S    
C61   C72   S    
C15   C17   A    
C40   H35   S    
C54   C55   D    
C59   H31   S    
C4    N16   A    
H58   O5    S    
C36   H17   S    
N4    Ni2   S    
C40   N4    A    
C2    C8    A    
C85   H59   S    
N10   N13   A    
C69   C80   S    
C76   C81   A    
C15   H5    S    
C3    N14   A    
C23   C55   S    
C35   C46   S    
C34   C52   A    
C87   H64   S    
C52   H42   S    
C32   C33   A    
C19   C20   A    
C1    N1    A    
C25   C26   A    
C9    C68   S    
C71   C72   A    
C12   C44   S    
C76   H44   S    
C59   C65   A    
C62   O5    S    
C11   C13   A    
C11   H2    S    
C57   C58   D    
C55   H27   S    
C84   H53   S    
C54   H26   S    
H57   O4    S    
C33   C35   A    
C73   C80   A    
C60   H32   S    
C22   C24   A    
C9    C78   A    
C58   H29   S    
C3    O1    S    
C69   C70   A    
C78   H34   S    
C10   C11   A    
C2    N13   A    
C79   C80   A    
N2    Ni3   S    
N6    N16   A    
C20   C21   A    
C84   H52   S    
C25   H8    S    
C38   H14   S    
C49   C50   A    
N1    Ni1   S    
H55   O3    S    
N13   Ni1   S    
C14   C15   A    
C49   H22   S    
C76   N7    A    
C21   C22   A    
C75   O6    S    
C54   C57   S    
C83   H50   S    
C73   H38   S    
C67   N10   A    
N11   Ni4   S    
C71   C81   S    
C20   C31   S    
