data_str_m3_o10_o16_f0_pcu.sym.67
_audit_creation_date              2012-12-10T16:51:32-0500
_audit_creation_method            fapswitch 2.2
_symmetry_space_group_name_H-M    P1
_symmetry_Int_Tables_number       1
_space_group_crystal_system       triclinic
_cell_length_a                    7.823975
_cell_length_b                    8.57338
_cell_length_c                    12.5572
_cell_angle_alpha                 92.249774
_cell_angle_beta                  103.702855
_cell_angle_gamma                 93.773479
_cell_volume                      815.254336716

loop_
_atom_site_label
_atom_site_type_symbol
_atom_type_description
_atom_site_fract_x
_atom_site_fract_y
_atom_site_fract_z
_atom_type_partial_charge
C1    C     C_R   0.044033 0.794446 0.496946 0.953326
C2    C     C_R   0.196470 0.614292 0.816611 -0.141852
C3    C     C_2   0.066982 0.957984 0.495301 -0.376746
C4    C     C_R   0.116337 0.539380 0.705811 0.885331
C5    C     C_2   0.932357 0.041911 0.503802 -0.379901
C6    C     C_R   0.955716 0.205527 0.502651 0.984408
C7    C     C_R   0.888684 0.489095 0.291417 0.877914
C8    C     C_R   0.871189 0.452975 0.992588 -0.182878
C9    C     C_R   0.827435 0.493487 0.174224 -0.076284
C10   C     C_R   0.094547 0.689692 0.877387 -0.279155
C11   C     C_R   0.169509 0.748083 0.984888 -0.224296
C12   C     C_R   0.445124 0.637626 0.976083 -0.007533
C13   C     C_R   0.344597 0.719486 0.037428 0.459103
C14   C     C_3   0.333539 0.797080 0.215455 0.069030
C15   C     C_3   0.457656 0.844737 0.326508 -0.793739
C16   C     C_R   0.379651 0.616118 0.862155 0.038767
C17   C     C_R   0.610216 0.577411 0.021270 0.097953
C18   C     C_R   0.714275 0.522482 0.950853 0.162984
C19   C     C_R   0.661380 0.541001 0.839500 -0.282732
C20   C     C_R   0.501736 0.599661 0.797646 -0.148346
C21   C     C_R   0.666374 0.555233 0.132489 -0.213768
C22   C     C_R   0.930068 0.441903 0.104604 -0.220240
H1    H     H_    0.054377 0.391972 0.136580 0.158842
H2    H     H_    0.475402 0.634555 0.715199 0.166405
H3    H     H_    0.194133 0.008894 0.487451 0.173524
H4    H     H_    0.270496 0.677703 0.219571 0.152732
H5    H     H_    0.231587 0.883135 0.199267 0.152863
H6    H     H_    0.382518 0.850445 0.390750 0.216750
H7    H     H_    0.558160 0.758422 0.348252 0.268389
H8    H     H_    0.525551 0.961975 0.323895 0.250136
H9    H     H_    0.805176 0.991100 0.511754 0.177621
H10   H     H_    0.471075 0.363035 0.429681 0.191513
H11   H     H_    0.529348 0.645548 0.559739 0.172386
H12   H     H_    0.741620 0.508801 0.784617 0.191075
H13   H     H_    0.949320 0.409478 0.938807 0.153480
H14   H     H_    0.583655 0.581090 0.187306 0.199016
H15   H     H_    0.959854 0.711242 0.839997 0.183271
H16   H     H_    0.090374 0.816805 0.025693 0.149386
N1    N     N_2   0.434800 0.456690 0.470850 -0.178738
N2    N     N_2   0.565200 0.543310 0.529150 -0.189611
O1    O     O_R   0.893060 0.738880 0.507150 -0.619687
O2    O     O_R   0.172250 0.711130 0.488470 -0.650436
O3    O     O_R   0.944700 0.520730 0.667600 -0.630884
O4    O     O_R   0.223890 0.492980 0.648920 -0.615745
O5    O     O_R   0.827750 0.288870 0.511530 -0.623914
O6    O     O_R   0.106940 0.261120 0.492850 -0.605534
O7    O     O_R   0.776110 0.507020 0.351080 -0.633745
O8    O     O_R   0.055300 0.479270 0.332400 -0.626980
O9    O     O_3   0.432693 0.800938 0.135034 -0.626178
Zn1   Zn    Zn3+2 0.813580 0.518530 0.512470 0.918207
Zn2   Zn    Zn3+2 0.186420 0.481470 0.487530 0.924511

loop_
_geom_bond_atom_site_label_1
_geom_bond_atom_site_label_2
_ccdc_geom_bond_type
C12   C17   A    
C11   H16   S    
C8    C22   A    
O3    Zn1   S    
C6    O5    A    
C14   H5    S    
C2    C16   A    
O1    Zn1   S    
C2    C4    S    
C19   C20   A    
O2    Zn2   S    
C16   C20   A    
C7    O8    A    
C17   C18   A    
C21   H14   S    
C14   H4    S    
C11   C13   A    
C9    C21   A    
C15   H6    S    
O5    Zn1   S    
C10   H15   S    
N2    Zn1   S    
O4    Zn2   S    
C1    O1    A    
C4    O3    A    
C15   H7    S    
O7    Zn1   S    
C6    O6    A    
C5    C6    S    
C13   O9    S    
C9    C22   A    
C14   O9    S    
C10   C11   A    
C2    C10   A    
C12   C16   A    
C1    O2    A    
C3    H3    S    
C12   C13   A    
C15   H8    S    
C18   C19   A    
H10   N1    S    
N1    N2    D    
C7    C9    S    
H11   N2    S    
C14   C15   S    
C5    H9    S    
C4    O4    A    
C3    C5    D    
N1    Zn2   S    
C22   H1    S    
O6    Zn2   S    
C8    H13   S    
O8    Zn2   S    
C8    C18   A    
C20   H2    S    
C7    O7    A    
C1    C3    S    
C19   H12   S    
C17   C21   A    
