data_str_m2_o16_o16_f0_pcu.sym.201
_audit_creation_date              2012-12-10T17:31:24-0500
_audit_creation_method            fapswitch 2.2
_symmetry_space_group_name_H-M    P1
_symmetry_Int_Tables_number       1
_space_group_crystal_system       triclinic
_cell_length_a                    19.34093
_cell_length_b                    19.48982
_cell_length_c                    12.402989
_cell_angle_alpha                 89.750285
_cell_angle_beta                  130.267736
_cell_angle_gamma                 90.232578
_cell_volume                      3567.38377631

loop_
_atom_site_label
_atom_site_type_symbol
_atom_type_description
_atom_site_fract_x
_atom_site_fract_y
_atom_site_fract_z
_atom_type_partial_charge
C1    C     C_R   0.608699 0.896633 0.648991 0.809701
C2    C     C_R   0.608171 0.103589 0.647723 0.866310
C3    C     C_R   0.104888 0.394936 0.644370 0.827434
C4    C     C_R   0.107021 0.603884 0.647006 0.871891
C5    C     C_R   0.264173 0.761566 0.061510 0.072407
C6    C     C_R   0.228966 0.210999 0.015119 0.074122
C7    C     C_R   0.746498 0.273694 0.038950 0.076853
C8    C     C_R   0.735807 0.715745 0.024793 0.075183
C9    C     C_R   0.681678 0.253585 0.051554 -0.036730
C10   C     C_R   0.665094 0.727556 0.028026 -0.019505
C11   C     C_R   0.210934 0.733330 0.091146 -0.026415
C12   C     C_R   0.162653 0.225500 0.027018 -0.013729
C13   C     C_R   0.602052 0.220152 0.937912 -0.049203
C14   C     C_R   0.604335 0.780904 0.946520 -0.031522
C15   C     C_R   0.127650 0.702644 0.982116 -0.054279
C16   C     C_R   0.105286 0.281461 0.953100 -0.037757
C17   C     C_R   0.595706 0.194356 0.828001 -0.219796
C18   C     C_R   0.593697 0.804865 0.830727 -0.136604
C19   C     C_R   0.110013 0.684120 0.858221 -0.215772
C20   C     C_R   0.092034 0.306769 0.835782 -0.138711
C21   C     C_R   0.325415 0.814553 0.150970 -0.260930
C22   C     C_R   0.302954 0.170189 0.122664 -0.271107
C23   C     C_R   0.813877 0.321232 0.138491 -0.259075
C24   C     C_R   0.809364 0.675678 0.134557 -0.272809
C25   C     C_R   0.289692 0.799865 0.303934 0.141480
C26   C     C_R   0.225015 0.138288 0.209834 0.166866
C27   C     C_R   0.762093 0.317210 0.271614 0.160324
C28   C     C_R   0.727101 0.641783 0.213300 0.161115
C29   C     C_R   0.665191 0.166625 0.723451 -0.195497
C30   C     C_R   0.664472 0.832819 0.723715 -0.204916
C31   C     C_R   0.163271 0.666495 0.724952 -0.197463
C32   C     C_R   0.151472 0.326796 0.708515 -0.198414
C33   C     C_R   0.680819 0.020656 0.289237 0.233520
C34   C     C_R   0.183378 0.510405 0.293103 0.231780
C35   C     C_R   0.343625 0.997014 0.619920 -0.050303
C36   C     C_R   0.843838 0.504313 0.620486 -0.068859
C37   C     C_R   0.302893 0.005110 0.680140 -0.127854
C38   C     C_R   0.805522 0.516715 0.682931 -0.130681
C39   C     C_R   0.382017 0.095395 0.337413 0.824078
C40   C     C_R   0.388077 0.899322 0.346146 0.798820
C41   C     C_R   0.883000 0.596300 0.339149 0.827183
C42   C     C_R   0.885687 0.400753 0.343344 0.804927
C43   C     C_R   0.359070 0.011574 0.829412 0.219321
C44   C     C_R   0.862379 0.517461 0.832518 0.216227
C45   C     C_R   0.455926 0.014638 0.915125 0.017397
C46   C     C_R   0.958922 0.512269 0.917476 0.034012
C47   C     C_R   0.492378 0.011744 0.843475 0.238546
C48   C     C_R   0.994667 0.507628 0.845001 0.229407
C49   C     C_R   0.520220 0.016798 0.069691 -0.035987
C50   C     C_R   0.023008 0.511791 0.071729 -0.024921
C51   C     C_R   0.612869 0.030297 0.141322 0.120156
C52   C     C_R   0.116727 0.520114 0.145118 0.133792
C53   C     C_R   0.637875 0.050069 0.064109 -0.251529
C54   C     C_R   0.144120 0.537388 0.070852 -0.246542
C55   C     C_R   0.587921 0.026066 0.927447 -0.010400
C56   C     C_R   0.091914 0.518226 0.930983 -0.015880
C57   C     C_R   0.499979 0.003685 0.159359 0.006215
C58   C     C_R   0.000951 0.501348 0.159305 -0.014986
C59   C     C_R   0.654764 0.006470 0.367811 0.024904
C60   C     C_R   0.155306 0.502618 0.370078 0.106813
C61   C     C_R   0.697537 0.268146 0.176950 -0.093598
C62   C     C_R   0.656103 0.685721 0.112155 -0.011267
C63   C     C_R   0.239255 0.741989 0.226312 -0.092106
C64   C     C_R   0.154739 0.183611 0.112406 -0.012937
C65   C     C_R   0.331729 0.838354 0.264654 -0.082437
C66   C     C_R   0.304003 0.137982 0.226228 -0.082104
C67   C     C_R   0.819134 0.346003 0.250207 -0.090229
C68   C     C_R   0.806945 0.641117 0.231973 -0.080582
C69   C     C_R   0.720933 0.192877 0.696000 -0.079003
C70   C     C_R   0.725656 0.810765 0.703490 -0.055909
C71   C     C_R   0.212053 0.696704 0.688908 -0.068639
C72   C     C_R   0.197600 0.296254 0.666810 -0.075314
C73   C     C_R   0.286222 0.738889 0.785558 0.210284
C74   C     C_R   0.255009 0.240021 0.742113 0.206584
C75   C     C_R   0.787765 0.241305 0.786552 0.211568
C76   C     C_R   0.786280 0.757090 0.785066 0.227332
C77   C     C_R   0.308385 0.755873 0.913774 -0.248254
C78   C     C_R   0.271261 0.216236 0.863367 -0.201523
C79   C     C_R   0.802167 0.262957 0.906618 -0.236026
C80   C     C_R   0.792413 0.728330 0.893964 -0.206825
C81   C     C_R   0.740334 0.245840 0.926515 0.075186
C82   C     C_R   0.731987 0.746840 0.916030 0.059464
C83   C     C_R   0.250361 0.737684 0.940531 0.073862
C84   C     C_R   0.220314 0.240336 0.900381 0.053926
C85   C     C_R   0.667855 0.200269 0.827789 0.088929
C86   C     C_R   0.661916 0.794834 0.821021 0.079046
C87   C     C_R   0.175121 0.694019 0.842335 0.101095
C88   C     C_R   0.153311 0.291663 0.813017 0.090086
Cu1   Cu    Cu3+1 0.526340 0.000000 0.421010 0.979008
Cu2   Cu    Cu3+1 0.026340 0.500000 0.421010 0.981114
Cu3   Cu    Cu3+1 0.473640 0.000000 0.578990 0.973797
Cu4   Cu    Cu3+1 0.973640 0.500000 0.578990 0.963043
H1    H     H_    0.707360 0.066701 0.120576 0.196920
H2    H     H_    0.214723 0.551865 0.129850 0.194453
H3    H     H_    0.433513 0.997000 0.123034 0.192487
H4    H     H_    0.934056 0.493116 0.120924 0.189685
H5    H     H_    0.302125 0.991871 0.507016 0.200454
H6    H     H_    0.801548 0.503244 0.507073 0.203177
H7    H     H_    0.363699 0.840854 0.128229 0.169139
H8    H     H_    0.361364 0.164813 0.129778 0.187505
H9    H     H_    0.861860 0.341187 0.129567 0.170262
H10   H     H_    0.870275 0.671974 0.148249 0.177266
H11   H     H_    0.368576 0.786368 0.986701 0.163230
H12   H     H_    0.320099 0.175570 0.922051 0.168259
H13   H     H_    0.858591 0.297067 0.975942 0.150318
H14   H     H_    0.843046 0.689179 0.956265 0.153197
H15   H     H_    0.530611 0.174593 0.737348 0.178394
H16   H     H_    0.533413 0.834074 0.754518 0.202741
H17   H     H_    0.042284 0.666910 0.771090 0.183886
H18   H     H_    0.034509 0.339775 0.767448 0.202678
H19   H     H_    0.704547 0.002515 0.481747 0.171184
H20   H     H_    0.203898 0.498757 0.484144 0.145778
N1    N     N_R   0.566260 0.000000 0.302220 -0.225770
N2    N     N_R   0.066260 0.500000 0.302220 -0.226595
N3    N     N_R   0.434410 1.000000 0.697680 -0.221251
N4    N     N_R   0.934410 0.500000 0.697680 -0.229589
O1    O     O_R   0.608610 0.924520 0.551740 -0.558014
O2    O     O_R   0.608610 0.075480 0.551740 -0.579338
O3    O     O_R   0.108610 0.424520 0.551740 -0.568605
O4    O     O_R   0.108610 0.575480 0.551740 -0.569858
O5    O     O_R   0.564110 0.924510 0.685150 -0.583482
O6    O     O_R   0.564110 0.075490 0.685150 -0.584034
O7    O     O_R   0.064110 0.424510 0.685150 -0.592920
O8    O     O_R   0.064110 0.575490 0.685150 -0.587931
O9    O     O_R   0.435880 0.075470 0.314850 -0.590864
O10   O     O_R   0.435880 0.924530 0.314850 -0.595956
O11   O     O_R   0.935880 0.575470 0.314850 -0.586032
O12   O     O_R   0.935880 0.424530 0.314850 -0.594526
O13   O     O_R   0.391380 0.075460 0.448260 -0.569475
O14   O     O_R   0.391380 0.924540 0.448260 -0.566575
O15   O     O_R   0.891380 0.575460 0.448260 -0.574988
O16   O     O_R   0.891380 0.424540 0.448260 -0.567976
N5    N     N_2   0.288470 0.822904 0.410606 -0.428630
H21   H     H_    0.318861 0.789243 0.494269 0.284749
C89   C     C_3   0.199571 0.845259 0.355737 -0.590377
H22   H     H_    0.157515 0.863544 0.244559 0.249680
H23   H     H_    0.207381 0.888499 0.419365 0.241180
H24   H     H_    0.163308 0.802677 0.360430 0.249702
N6    N     N_2   0.211947 0.086726 0.277111 -0.430470
H25   H     H_    0.177992 0.102347 0.310919 0.287612
C90   C     C_3   0.177272 0.022811 0.199727 -0.618751
H26   H     H_    0.110306 0.030921 0.093292 0.243390
H27   H     H_    0.168483 0.985471 0.257372 0.248269
H28   H     H_    0.225322 0.000926 0.188594 0.208989
N7    N     N_2   0.771284 0.335519 0.391074 -0.428919
H29   H     H_    0.806594 0.299985 0.471837 0.277079
C91   C     C_3   0.690009 0.361141 0.360634 -0.595684
H30   H     H_    0.660982 0.321641 0.386024 0.259408
H31   H     H_    0.637412 0.376353 0.247955 0.248284
H32   H     H_    0.707778 0.406245 0.427112 0.237902
N8    N     N_2   0.714054 0.592051 0.283128 -0.430288
H33   H     H_    0.684149 0.610220 0.322233 0.295256
C92   C     C_3   0.674853 0.528523 0.205524 -0.618068
H34   H     H_    0.609558 0.538029 0.097753 0.241739
H35   H     H_    0.661126 0.494459 0.261000 0.249478
H36   H     H_    0.722366 0.502352 0.197680 0.214590
N9    N     N_2   0.774919 0.023126 0.358456 -0.438949
H37   H     H_    0.814919 0.041307 0.460667 0.297025
C93   C     C_3   0.809985 0.959805 0.350081 -0.634210
H38   H     H_    0.882060 0.967018 0.399557 0.234861
H39   H     H_    0.771451 0.944544 0.238331 0.264538
H40   H     H_    0.805600 0.918112 0.406915 0.246405
N10   N     N_2   0.277741 0.507407 0.363932 -0.426436
H41   H     H_    0.319011 0.522504 0.468290 0.299076
C94   C     C_3   0.306775 0.442658 0.348275 -0.612275
H42   H     H_    0.297515 0.400748 0.398999 0.266034
H43   H     H_    0.379618 0.445879 0.399829 0.234234
H44   H     H_    0.267758 0.430283 0.235056 0.264665
N11   N     N_2   0.318102 0.020030 0.891093 -0.441682
H45   H     H_    0.279782 0.063658 0.861072 0.306171
C95   C     C_3   0.279148 0.959055 0.901204 -0.681381
H46   H     H_    0.256064 0.971303 0.960863 0.234679
H47   H     H_    0.330814 0.918059 0.958978 0.195193
H48   H     H_    0.220658 0.939316 0.795762 0.263564
N12   N     N_2   0.823152 0.529532 0.895985 -0.443073
H49   H     H_    0.796151 0.577635 0.879170 0.307503
C96   C     C_3   0.769865 0.474071 0.888538 -0.676261
H50   H     H_    0.746216 0.489049 0.946268 0.236653
H51   H     H_    0.811822 0.427261 0.939645 0.197803
H52   H     H_    0.709940 0.461943 0.777826 0.255717
C97   C     C_2   0.201056 0.008250 0.581709 0.804943
O17   O     O_2   0.156454 0.991323 0.458234 -0.640068
O18   O     O_R   0.155227 0.033721 0.625462 -0.766868
H53   H     H_    0.086968 0.033797 0.547272 0.344643
C98   C     C_2   0.706122 0.531809 0.587713 0.816450
O19   O     O_2   0.655476 0.510036 0.466767 -0.633310
O20   O     O_R   0.670100 0.573019 0.632788 -0.763746
H54   H     H_    0.602279 0.579877 0.557177 0.348771
C99   C     C_2   0.652352 0.990777 0.921321 0.916678
O21   O     O_2   0.668439 0.930437 0.954914 -0.620114
O22   O     O_R   0.711643 0.028595 0.915896 -0.770032
H55   H     H_    0.757405 0.998623 0.923597 0.325455
C100  C     C_2   0.156725 0.489116 0.918645 0.919095
O23   O     O_2   0.179044 0.429296 0.952311 -0.624210
O24   O     O_R   0.212365 0.532442 0.913623 -0.769038
H56   H     H_    0.259734 0.506510 0.918659 0.325854
C101  C     C_2   0.519598 0.221031 0.921213 0.861354
O25   O     O_2   0.478191 0.167849 0.896793 -0.599895
O26   O     O_R   0.491212 0.282967 0.938155 -0.737688
H57   H     H_    0.439710 0.276890 0.939358 0.349182
C102  C     C_2   0.569674 0.823083 0.002120 0.852558
O27   O     O_2   0.608854 0.822954 0.128577 -0.594589
O28   O     O_R   0.496435 0.866463 0.913199 -0.803434
H58   H     H_    0.473961 0.884546 0.962060 0.317254
C103  C     C_2   0.052648 0.701253 0.985619 0.894556
O29   O     O_2   0.997466 0.654738 0.928450 -0.614067
O30   O     O_R   0.044737 0.753621 0.053924 -0.763666
H59   H     H_    0.993390 0.745497 0.054940 0.334798
C104  C     C_2   0.076678 0.323422 0.017811 0.840150
O31   O     O_2   0.122369 0.323811 0.146201 -0.601627
O32   O     O_R   0.000724 0.364849 0.934764 -0.812760
H60   H     H_    0.981887 0.381255 0.989788 0.313738
C105  C     C_2   0.666058 0.220039 0.229220 0.866458
O33   O     O_2   0.593422 0.228671 0.200678 -0.543248
O34   O     O_R   0.721985 0.166339 0.317796 -0.740624
H61   H     H_    0.781487 0.165385 0.336966 0.308217
C106  C     C_2   0.566627 0.677690 0.075602 0.819912
O35   O     O_2   0.557913 0.690604 0.162663 -0.557489
O36   O     O_R   0.493105 0.653343 0.941863 -0.768476
H62   H     H_    0.437186 0.645950 0.931561 0.341224
C107  C     C_2   0.238265 0.683693 0.301584 0.903040
O37   O     O_2   0.166993 0.660008 0.262157 -0.569638
O38   O     O_R   0.319734 0.655323 0.420135 -0.703730
H63   H     H_    0.375166 0.677303 0.442088 0.292551
C108  C     C_2   0.066842 0.177728 0.081370 0.813245
O39   O     O_2   0.061318 0.192628 0.171251 -0.576608
O40   O     O_R   0.991087 0.153206 0.949696 -0.760113
H64   H     H_    0.936339 0.147710 0.943132 0.343257
C109  C     C_2   0.706988 0.173660 0.568268 0.928738
O41   O     O_2   0.769989 0.151145 0.578714 -0.555324
O42   O     O_R   0.620249 0.178795 0.436590 -0.724232
H65   H     H_    0.612109 0.147446 0.364389 0.378541
C110  C     C_2   0.727696 0.841436 0.595936 0.868498
O43   O     O_2   0.791018 0.878239 0.632817 -0.626112
O44   O     O_R   0.657653 0.827186 0.452882 -0.711000
H66   H     H_    0.666667 0.850852 0.389856 0.357251
C111  C     C_2   0.182629 0.688320 0.546676 0.911432
O45   O     O_2   0.236986 0.669449 0.533920 -0.524524
O46   O     O_R   0.092070 0.700554 0.428056 -0.778504
H67   H     H_    0.078228 0.691173 0.335666 0.357945
C112  C     C_2   0.182399 0.319251 0.538670 0.889965
O47   O     O_2   0.244761 0.343811 0.549068 -0.617587
O48   O     O_R   0.095996 0.313117 0.406266 -0.725081
H68   H     H_    0.092940 0.332239 0.327200 0.366219
N13   N     N_2   0.334177 0.769351 0.747579 -0.398263
H69   H     H_    0.403115 0.765097 0.824911 0.297544
C113  C     C_3   0.304115 0.838255 0.695476 -0.658920
H70   H     H_    0.319062 0.871262 0.780021 0.224285
H71   H     H_    0.229884 0.839130 0.606657 0.232367
H72   H     H_    0.340617 0.859037 0.661458 0.270943
N14   N     N_2   0.299381 0.207714 0.698697 -0.402649
H73   H     H_    0.341059 0.240603 0.698477 0.292348
C114  C     C_3   0.241665 0.169852 0.567607 -0.585234
H74   H     H_    0.183554 0.146444 0.552296 0.257525
H75   H     H_    0.282467 0.129865 0.568756 0.229987
H76   H     H_    0.215350 0.203599 0.476066 0.242699
N15   N     N_2   0.836050 0.272652 0.749614 -0.404155
H77   H     H_    0.904797 0.265645 0.824206 0.303524
C115  C     C_3   0.809556 0.342928 0.703964 -0.640293
H78   H     H_    0.828971 0.375301 0.792533 0.227132
H79   H     H_    0.735038 0.346613 0.619565 0.228541
H80   H     H_    0.844101 0.362732 0.665739 0.265542
N16   N     N_2   0.845245 0.733199 0.762137 -0.408679
H81   H     H_    0.890374 0.769837 0.780509 0.279693
C116  C     C_3   0.803450 0.695118 0.632953 -0.568765
H82   H     H_    0.735103 0.675997 0.586573 0.253480
H83   H     H_    0.847030 0.650975 0.655789 0.244119
H84   H     H_    0.797064 0.728050 0.553586 0.219270

loop_
_geom_bond_atom_site_label_1
_geom_bond_atom_site_label_2
_ccdc_geom_bond_type
C89   H24   S    
C83   C87   A    
C95   H46   S    
N9    H37   S    
C39   O9    A    
N11   C95   S    
N11   H45   S    
C14   C18   A    
C53   C55   A    
C60   N2    A    
O38   H63   S    
C44   N12   S    
C48   C56   A    
C111  O46   S    
O28   H58   S    
C115  H80   S    
C113  H72   S    
C98   O20   S    
C74   N14   S    
C2    O2    A    
O44   H66   S    
C89   H22   S    
N12   C96   S    
Cu3   O14   S    
Cu1   O9    S    
C105  O33   D    
Cu2   N2    S    
C47   N3    A    
C95   H47   S    
C19   H17   S    
C4    O8    A    
C107  O37   D    
C13   C101  S    
C2    C29   S    
C9    C61   A    
C55   C99   S    
C58   N2    A    
C16   C104  S    
N10   C94   S    
O46   H67   S    
C5    C11   A    
C11   C63   A    
C17   H15   S    
C6    C12   A    
C114  H74   S    
C12   C64   A    
C58   H4    S    
N14   C114  S    
C73   N13   S    
C77   C83   A    
O48   H68   S    
C6    C22   A    
C14   C102  S    
C80   H14   S    
C112  O47   D    
C49   C57   A    
C79   H13   S    
C104  O31   D    
N16   C116  S    
N15   H77   S    
C102  O27   D    
C45   C47   A    
C23   C67   A    
C101  O26   S    
O40   H64   S    
C26   C64   A    
C22   C66   A    
C9    C13   A    
C27   C61   A    
C91   H30   S    
N7    C91   S    
N10   H41   S    
C11   C15   A    
C12   C16   A    
C52   C54   A    
C100  O24   S    
Cu3   O6    S    
C59   H19   S    
Cu2   O11   S    
C93   H39   S    
C35   N3    A    
C5    C83   A    
Cu1   Cu3   S    
C25   N5    S    
C116  H82   S    
C29   C85   A    
C100  O23   D    
C59   N1    A    
C48   N4    A    
C8    C24   A    
C21   C65   A    
C113  H71   S    
N8    H33   S    
C37   C97   S    
O26   H57   S    
C33   C59   A    
C111  O45   D    
C34   C60   A    
C102  O28   S    
C35   H5    S    
C94   H43   S    
C10   C62   A    
C61   C105  S    
C64   C108  S    
C30   C70   A    
C3    O7    A    
N7    H29   S    
C41   C68   S    
C29   C69   A    
Cu1   O10   S    
C2    O6    A    
C43   N11   S    
Cu2   Cu4   S    
C108  O40   S    
C95   H48   S    
C46   C48   A    
C40   O14   A    
C91   H31   S    
C6    C84   A    
C28   C62   A    
C78   H12   S    
O30   H59   S    
C26   C66   A    
C62   C106  S    
C75   N15   S    
N16   H81   S    
C91   H32   S    
C31   C87   A    
C72   C74   A    
C34   N10   S    
C10   C14   A    
Cu4   O7    S    
C112  O48   S    
O36   H62   S    
C41   O15   A    
C21   H7    S    
C57   N1    A    
O24   H56   S    
C44   C46   A    
C49   C51   A    
C106  O35   D    
C97   O17   D    
C53   H1    S    
C90   H28   S    
C99   O22   S    
C33   C51   A    
O22   H55   S    
N15   C115  S    
C70   C110  S    
C50   C58   A    
C37   C43   A    
C15   C19   A    
O18   H53   S    
O32   H60   S    
C38   C44   A    
C109  O41   D    
C60   H20   S    
C54   H2    S    
C69   C109  S    
N5    H21   S    
Cu4   N4    S    
C50   C52   A    
C93   H38   S    
Cu1   N1    S    
C45   C49   A    
C16   C20   A    
C96   H52   S    
C40   O10   A    
Cu4   O15   S    
C108  O39   D    
N14   H73   S    
C93   H40   S    
C25   C65   A    
C3    C32   S    
C18   C86   A    
N6    C90   S    
C92   H36   S    
C110  O44   S    
C27   N7    S    
C15   C103  S    
C3    O3    A    
C20   H18   S    
C8    C10   A    
C7    C81   A    
C76   N16   S    
Cu1   O1    S    
C30   C86   A    
C26   N6    S    
C94   H44   S    
C40   C65   S    
N13   C113  S    
C74   C78   A    
C42   C67   S    
C109  O42   S    
C39   C66   S    
C17   C85   A    
C77   H11   S    
C92   H35   S    
C115  H78   S    
C36   N4    A    
C71   C111  S    
C116  H83   S    
C35   C37   A    
C47   C55   A    
C110  O43   D    
C41   O11   A    
C22   H8    S    
C63   C107  S    
C89   H23   S    
C103  O29   D    
C101  O25   D    
C73   C77   A    
C57   H3    S    
C25   C63   A    
C1    O5    A    
C28   C68   A    
Cu4   O8    S    
C34   C52   A    
C72   C112  S    
C76   C80   A    
N13   H69   S    
C115  H79   S    
C114  H76   S    
C36   H6    S    
C113  H70   S    
C79   C81   A    
C54   C56   A    
Cu3   O13   S    
C42   O12   A    
C106  O36   S    
C38   C98   S    
C39   O13   A    
Cu4   O16   S    
C46   C50   A    
C19   C87   A    
C5    C21   A    
C13   C17   A    
C107  O38   S    
Cu2   O3    S    
C90   H27   S    
C105  O34   S    
O20   H54   S    
C43   C45   A    
N12   H49   S    
C82   C86   A    
C90   H26   S    
C70   C76   A    
N6    H25   S    
C98   O19   D    
C23   H9    S    
C84   C88   A    
C7    C23   A    
C20   C88   A    
C36   C38   A    
C1    C30   S    
C104  O32   S    
C80   C82   A    
C96   H51   S    
C69   C75   A    
C24   H10   S    
N8    C92   S    
O34   H61   S    
C99   O21   D    
C116  H84   S    
C18   H16   S    
C78   C84   A    
C33   N9    S    
C4    C31   S    
C27   C67   A    
C24   C68   A    
C56   C100  S    
C7    C9    A    
C94   H42   S    
C8    C82   A    
Cu3   O5    S    
Cu3   N3    S    
Cu1   O2    S    
C28   N8    S    
N9    C93   S    
C96   H50   S    
C114  H75   S    
C71   C73   A    
O42   H65   S    
N5    C89   S    
Cu2   O12   S    
C4    O4    A    
C42   O16   A    
C51   C53   A    
C92   H34   S    
C1    O1    A    
C103  O30   S    
C75   C79   A    
C81   C85   A    
C97   O18   S    
Cu2   O4    S    
C31   C71   A    
C32   C72   A    
C32   C88   A    
