data_str_m4_o4_o24_f0_acs.sym.10
_audit_creation_date              2012-12-11T15:50:23-0500
_audit_creation_method            fapswitch 2.2
_symmetry_space_group_name_H-M    P1
_symmetry_Int_Tables_number       1
_space_group_crystal_system       triclinic
_cell_length_a                    19.038001
_cell_length_b                    11.10913
_cell_length_c                    18.626587
_cell_angle_alpha                 90.140454
_cell_angle_beta                  90.299302
_cell_angle_gamma                 89.889874
_cell_volume                      3939.36894937

loop_
_atom_site_label
_atom_site_type_symbol
_atom_type_description
_atom_site_fract_x
_atom_site_fract_y
_atom_site_fract_z
_atom_type_partial_charge
C1    C     C_R   0.270285 0.047748 0.850981 0.520097
C2    C     C_R   0.744789 0.612769 0.914665 0.039339
C3    C     C_R   0.229023 0.548868 0.352073 0.554058
C4    C     C_R   0.438572 0.819191 0.639994 0.569858
C5    C     C_R   0.528452 0.823009 0.351838 0.554872
C6    C     C_R   0.938576 0.319193 0.639993 0.569384
C7    C     C_R   0.028451 0.323010 0.351837 0.554040
C8    C     C_R   0.261330 0.641573 0.641819 0.553121
C9    C     C_R   0.739524 0.639547 0.357185 0.558209
C10   C     C_R   0.761330 0.141579 0.641815 0.554321
C11   C     C_R   0.239521 0.139553 0.357188 0.557695
C12   C     C_3   0.481827 0.925841 0.037713 -0.149972
C13   C     C_R   0.755649 0.113046 0.085867 0.033109
C14   C     C_3   0.517606 0.925590 0.962485 -0.133657
C15   C     C_3   0.981134 0.425982 0.037849 -0.149200
C16   C     C_3   0.017618 0.426698 0.962913 -0.148910
C17   C     C_3   0.431910 0.826896 0.010548 0.258501
C18   C     C_3   0.567614 0.826576 0.988909 0.258987
C19   C     C_3   0.931766 0.326619 0.010099 0.257963
C20   C     C_3   0.067713 0.327783 0.989967 0.258984
C21   C     C_3   0.467194 0.825983 0.936850 0.013324
C22   C     C_3   0.532421 0.825956 0.062921 0.001801
C23   C     C_3   0.967723 0.326427 0.936809 0.014752
C24   C     C_R   0.244694 0.112493 0.914700 0.033976
C25   C     C_3   0.031781 0.326147 0.063266 0.016196
C26   C     C_3   0.329950 0.930255 0.023107 -0.124462
C27   C     C_3   0.673410 0.911457 0.007095 -0.104070
C28   C     C_3   0.829421 0.428787 0.022824 -0.124422
C29   C     C_3   0.169269 0.431569 0.977139 -0.123753
C30   C     C_R   0.317728 0.584266 0.049448 0.078373
C31   C     C_R   0.682112 0.585778 0.950257 0.079851
C32   C     C_R   0.817687 0.083597 0.049540 0.076839
C33   C     C_R   0.182254 0.084647 0.950483 0.077553
C34   C     C_R   0.324065 0.604319 0.975930 0.083890
C35   C     C_R   0.675467 0.606447 0.023793 0.071578
C36   C     C_R   0.823524 0.102132 0.975807 0.081920
C37   C     C_R   0.730248 0.049142 0.149899 0.509572
C38   C     C_R   0.175834 0.104691 0.024031 0.084518
C39   C     C_R   0.209491 0.693609 0.974257 -0.198120
C40   C     C_R   0.791047 0.691613 0.026224 -0.205364
C41   C     C_R   0.708821 0.190875 0.974124 -0.188841
C42   C     C_R   0.290423 0.193302 0.026058 -0.197007
C43   C     C_R   0.206181 0.684473 0.048455 -0.155928
C44   C     C_R   0.794230 0.683560 0.952037 -0.153267
C45   C     C_R   0.706340 0.184386 0.048584 -0.158189
C46   C     C_R   0.293837 0.184143 0.951899 -0.155850
C47   C     C_3   0.359590 0.472478 0.046152 -0.304280
C48   C     C_R   0.770284 0.547818 0.850959 0.521571
C49   C     C_3   0.640652 0.473653 0.953286 -0.302129
C50   C     C_3   0.859521 0.971618 0.046770 -0.303862
C51   C     C_3   0.140587 0.972876 0.953448 -0.304036
C52   C     C_3   0.367157 0.493657 0.965694 -0.292683
C53   C     C_3   0.632370 0.495843 0.033528 -0.291360
C54   C     C_3   0.866618 0.991350 0.966139 -0.292984
C55   C     C_3   0.132769 0.994270 0.033924 -0.293122
C56   C     C_R   0.268174 0.653213 0.936125 0.014166
C57   C     C_R   0.732116 0.651883 0.063958 -0.001942
C58   C     C_R   0.767198 0.149532 0.935952 0.025923
C59   C     C_R   0.229717 0.547657 0.148996 0.518865
C60   C     C_R   0.231698 0.153264 0.063976 0.015552
C61   C     C_R   0.487474 0.827379 0.417523 0.019374
C62   C     C_R   0.451488 0.825107 0.563285 0.016008
C63   C     C_R   0.987467 0.327388 0.417518 0.019457
C64   C     C_R   0.951498 0.325118 0.563285 0.015982
C65   C     C_R   0.439926 0.817681 0.862984 0.554042
C66   C     C_R   0.559659 0.817419 0.136931 0.537952
C67   C     C_R   0.940233 0.317758 0.863031 0.554062
C68   C     C_R   0.059530 0.317491 0.136932 0.551729
C69   C     C_R   0.474581 0.718841 0.453462 0.029032
C70   C     C_3   0.518201 0.728097 0.962835 -0.107637
C71   C     C_R   0.458380 0.718126 0.525086 0.021721
C72   C     C_R   0.974543 0.218853 0.453449 0.029063
C73   C     C_R   0.958355 0.218139 0.525077 0.021778
C74   C     C_R   0.453133 0.934567 0.525352 -0.160789
C75   C     C_R   0.471211 0.935954 0.452405 -0.169633
C76   C     C_R   0.953178 0.434596 0.525363 -0.160909
C77   C     C_R   0.971244 0.435976 0.452413 -0.169681
C78   C     C_3   0.521111 0.610533 0.461416 -0.268056
C79   C     C_3   0.504768 0.612100 0.540359 -0.268626
C80   C     C_3   0.021040 0.110498 0.461387 -0.268021
C81   C     C_3   0.481583 0.728105 0.036313 -0.108261
C82   C     C_3   0.004722 0.112081 0.540337 -0.268717
C83   C     C_R   0.250177 0.605829 0.417810 0.023421
C84   C     C_R   0.745074 0.594113 0.580555 0.022288
C85   C     C_R   0.750184 0.105853 0.417803 0.023265
C86   C     C_R   0.245078 0.094134 0.580560 0.021895
C87   C     C_R   0.200338 0.673218 0.455848 0.023738
C88   C     C_R   0.777980 0.691556 0.548301 0.017969
C89   C     C_R   0.700353 0.173283 0.455836 0.023679
C90   C     C_R   0.277988 0.191560 0.548303 0.017447
C91   C     C_R   0.203966 0.678244 0.528664 0.034817
C92   C     C_3   0.018746 0.228813 0.963251 -0.107286
C93   C     C_R   0.778872 0.698063 0.475195 0.045785
C94   C     C_R   0.703975 0.178302 0.528654 0.034534
C95   C     C_R   0.278872 0.198070 0.475198 0.045816
C96   C     C_R   0.314044 0.572345 0.527827 -0.162846
C97   C     C_R   0.700520 0.529297 0.464402 -0.179828
C98   C     C_R   0.814038 0.072339 0.527823 -0.162812
C99   C     C_R   0.200507 0.029343 0.464413 -0.179708
C100  C     C_R   0.311715 0.569270 0.452984 -0.156079
C101  C     C_R   0.699410 0.521468 0.538872 -0.164913
C102  C     C_R   0.811715 0.069269 0.452979 -0.156099
C103  C     C_3   0.981446 0.228098 0.036198 -0.108541
C104  C     C_R   0.199403 0.021525 0.538883 -0.164884
C105  C     C_3   0.121180 0.668537 0.458187 -0.266604
C106  C     C_3   0.850455 0.743557 0.554384 -0.275126
C107  C     C_3   0.621187 0.168679 0.458168 -0.266626
C108  C     C_3   0.350465 0.243538 0.554379 -0.275229
C109  C     C_3   0.126432 0.675346 0.538895 -0.275711
C110  C     C_3   0.852255 0.744515 0.473214 -0.266073
C111  C     C_3   0.626432 0.175455 0.538879 -0.275468
C112  C     C_3   0.352253 0.244508 0.473210 -0.265946
C113  C     C_R   0.272807 0.680454 0.859431 0.549700
C114  C     C_R   0.255302 0.612328 0.085399 0.034010
C115  C     C_R   0.727386 0.679474 0.140640 0.536427
C116  C     C_R   0.772352 0.178790 0.859556 0.555689
C117  C     C_R   0.227106 0.180450 0.140687 0.549026
C118  C     C_R   0.256681 0.618077 0.566244 0.019300
C119  C     C_R   0.745027 0.612672 0.432065 0.023512
C120  C     C_R   0.756679 0.118099 0.566238 0.019382
C121  C     C_R   0.245019 0.112692 0.432071 0.023755
C122  C     C_R   0.270564 0.046734 0.647300 0.552211
C123  C     C_R   0.729024 0.048872 0.352072 0.554455
C124  C     C_R   0.770565 0.546728 0.647298 0.552892
Cr1   Cr    Cr6+3 0.229640 0.835880 0.747370 0.999739
Cr2   Cr    Cr6+3 0.614230 0.677220 0.250660 1.006277
Cr3   Cr    Cr6+3 0.885770 0.177220 0.749340 1.006171
Cr4   Cr    Cr6+3 0.114230 0.177220 0.250660 1.007854
Cr5   Cr    Cr6+3 0.770360 0.835880 0.252630 1.000165
Cr6   Cr    Cr6+3 0.729640 0.335880 0.747370 1.002877
Cr7   Cr    Cr6+3 0.270360 0.335880 0.252630 1.003713
Cr8   Cr    Cr6+3 0.387390 0.989720 0.750850 1.006038
Cr9   Cr    Cr6+3 0.612610 0.989720 0.249150 1.002040
Cr10  Cr    Cr6+3 0.887390 0.489720 0.750850 1.004352
Cr11  Cr    Cr6+3 0.112610 0.489720 0.249150 1.004622
Cr12  Cr    Cr6+3 0.385770 0.677220 0.749340 1.005681
H1    H     H_    0.446250 0.018650 0.553125 0.128917
H2    H     H_    0.551167 0.635714 0.574093 0.162024
H3    H     H_    0.999663 0.030353 0.432907 0.128934
H4    H     H_    0.051136 0.135664 0.574054 0.161625
H5    H     H_    0.359288 0.537057 0.555562 0.125668
H6    H     H_    0.668314 0.468987 0.432472 0.126641
H7    H     H_    0.859274 0.037031 0.555561 0.125638
H8    H     H_    0.168299 0.969039 0.432486 0.126619
H9    H     H_    0.354399 0.528562 0.423484 0.121310
H10   H     H_    0.669260 0.449449 0.562577 0.143657
H11   H     H_    0.854400 0.028550 0.423480 0.121311
H12   H     H_    0.478354 0.021271 0.425550 0.116736
H13   H     H_    0.169243 0.949548 0.562594 0.143716
H14   H     H_    0.098987 0.581142 0.440154 0.170311
H15   H     H_    0.890930 0.684227 0.577807 0.156874
H16   H     H_    0.598957 0.081309 0.440126 0.170367
H17   H     H_    0.390933 0.184194 0.577794 0.156987
H18   H     H_    0.096412 0.749619 0.433893 0.126412
H19   H     H_    0.849415 0.834669 0.578669 0.132168
H20   H     H_    0.596451 0.249805 0.433883 0.126415
H21   H     H_    0.349439 0.334644 0.578667 0.131910
H22   H     H_    0.105507 0.760904 0.561279 0.135824
H23   H     H_    0.946338 0.518700 0.553147 0.128892
H24   H     H_    0.855678 0.835396 0.450014 0.146635
H25   H     H_    0.605516 0.261023 0.561272 0.135810
H26   H     H_    0.355677 0.335388 0.450013 0.146565
H27   H     H_    0.108341 0.592145 0.566258 0.147633
H28   H     H_    0.889638 0.678056 0.450247 0.132256
H29   H     H_    0.608318 0.092247 0.566229 0.148240
H30   H     H_    0.389627 0.178050 0.450234 0.132274
H31   H     H_    0.467603 0.008127 0.068338 0.120274
H32   H     H_    0.533275 0.006807 0.931884 0.133380
H33   H     H_    0.966448 0.507745 0.068743 0.119615
H34   H     H_    0.978419 0.521299 0.425569 0.116711
H35   H     H_    0.031712 0.509040 0.932605 0.120058
H36   H     H_    0.533382 0.647161 0.932279 0.138958
H37   H     H_    0.466432 0.647347 0.066747 0.139219
H38   H     H_    0.034378 0.148401 0.932434 0.139547
H39   H     H_    0.966404 0.147073 0.066432 0.137839
H40   H     H_    0.161820 0.718045 0.946226 0.126973
H41   H     H_    0.838690 0.715649 0.054432 0.130399
H42   H     H_    0.661338 0.216713 0.946186 0.130889
H43   H     H_    0.338072 0.217400 0.054215 0.126693
H44   H     H_    0.157353 0.711946 0.073166 0.138823
H45   H     H_    0.076810 0.131253 0.450353 0.169769
H46   H     H_    0.843206 0.710317 0.927562 0.139583
H47   H     H_    0.657941 0.213320 0.073584 0.138373
H48   H     H_    0.342710 0.211277 0.927353 0.139091
H49   H     H_    0.825200 0.898517 0.062774 0.152373
H50   H     H_    0.175432 0.899945 0.937927 0.155057
H51   H     H_    0.324943 0.399642 0.061620 0.155042
H52   H     H_    0.675469 0.399890 0.938671 0.152126
H53   H     H_    0.409475 0.476599 0.076955 0.128804
H54   H     H_    0.590994 0.477038 0.922076 0.129828
H55   H     H_    0.909617 0.976331 0.077173 0.129635
H56   H     H_    0.976067 0.030725 0.558109 0.125387
H57   H     H_    0.090765 0.976861 0.922530 0.129431
H58   H     H_    0.421852 0.514874 0.949676 0.138938
H59   H     H_    0.577508 0.517284 0.049035 0.138132
H60   H     H_    0.921212 0.012413 0.949643 0.139152
H61   H     H_    0.078017 0.015825 0.049800 0.139134
H62   H     H_    0.340537 0.425716 0.931463 0.138285
H63   H     H_    0.658618 0.428017 0.068075 0.138265
H64   H     H_    0.839764 0.922920 0.932485 0.141003
H65   H     H_    0.159241 0.926268 0.068138 0.137444
H66   H     H_    0.346312 0.977089 0.973502 0.122778
H67   H     H_    0.576874 0.631350 0.450398 0.169789
H68   H     H_    0.342857 0.982709 0.072225 0.148024
H69   H     H_    0.272815 0.917081 0.021192 0.153341
H70   H     H_    0.682419 0.879941 0.062588 0.107515
H71   H     H_    0.644082 0.997334 0.007695 0.125589
H72   H     H_    0.724371 0.924920 0.980977 0.158567
H73   H     H_    0.845973 0.477159 0.973851 0.124625
H74   H     H_    0.842054 0.479620 0.072626 0.149416
H75   H     H_    0.772292 0.415522 0.020553 0.153128
H76   H     H_    0.152013 0.480451 0.025877 0.125045
H77   H     H_    0.156644 0.481741 0.927212 0.148796
H78   H     H_    0.476122 0.530723 0.558121 0.125377
H79   H     H_    0.226457 0.418920 0.979883 0.153301
H80   H     H_    0.499771 0.530367 0.432929 0.128977
O1    O     O_R   0.214300 0.709080 0.827500 -0.523208
O2    O     O_R   0.543340 0.717710 0.330180 -0.517792
O3    O     O_R   0.956660 0.217710 0.669820 -0.513586
O4    O     O_R   0.043340 0.217710 0.330180 -0.518278
O5    O     O_R   0.320590 0.625770 0.672930 -0.519848
O6    O     O_R   0.679410 0.625770 0.327070 -0.505987
O7    O     O_R   0.820590 0.125770 0.672930 -0.519640
O8    O     O_R   0.179410 0.125770 0.327070 -0.506551
O9    O     O_3   0.334270 0.834280 0.749190 -0.306210
O10   O     O_3   0.665730 0.834280 0.250810 -0.283999
O11   O     O_3   0.834270 0.334280 0.749190 -0.306103
O12   O     O_R   0.785700 0.709080 0.172500 -0.524313
O13   O     O_3   0.165730 0.334280 0.250810 -0.283355
O14   O     O_R   0.236190 0.958390 0.823150 -0.516170
O15   O     O_R   0.763810 0.958390 0.176850 -0.523225
O16   O     O_R   0.736190 0.458390 0.823150 -0.516376
O17   O     O_R   0.263810 0.458390 0.176850 -0.518142
O18   O     O_R   0.332090 0.075280 0.831290 -0.535318
O19   O     O_R   0.667910 0.075280 0.168710 -0.536276
O20   O     O_R   0.832090 0.575280 0.831290 -0.534992
O21   O     O_R   0.167910 0.575280 0.168710 -0.535929
O22   O     O_R   0.446280 0.918040 0.826620 -0.490769
O23   O     O_R   0.714300 0.209080 0.827500 -0.516755
O24   O     O_R   0.553720 0.918040 0.173380 -0.497914
O25   O     O_R   0.946280 0.418040 0.826620 -0.492779
O26   O     O_R   0.053720 0.418040 0.173380 -0.500120
O27   O     O_R   0.457080 0.716270 0.831760 -0.518388
O28   O     O_R   0.542920 0.716270 0.168240 -0.522183
O29   O     O_R   0.957080 0.216270 0.831760 -0.520269
O30   O     O_R   0.042920 0.216270 0.168240 -0.525481
O31   O     O_R   0.320980 0.624440 0.823040 -0.507999
O32   O     O_R   0.679020 0.624440 0.176960 -0.506202
O33   O     O_R   0.820980 0.124440 0.823040 -0.506856
O34   O     O_R   0.285700 0.209080 0.172500 -0.526543
O35   O     O_R   0.179020 0.124440 0.176960 -0.508725
O36   O     O_R   0.213880 0.710510 0.665560 -0.512639
O37   O     O_R   0.786120 0.710510 0.334440 -0.513843
O38   O     O_R   0.713880 0.210510 0.665560 -0.512220
O39   O     O_R   0.286120 0.210510 0.334440 -0.514459
O40   O     O_R   0.235800 0.959720 0.673040 -0.511541
O41   O     O_R   0.764200 0.959720 0.326960 -0.505110
O42   O     O_R   0.735800 0.459720 0.673040 -0.511734
O43   O     O_R   0.264200 0.459720 0.326960 -0.506004
O44   O     O_R   0.331670 0.076720 0.669350 -0.532911
O45   O     O_R   0.445900 0.919370 0.676500 -0.497342
O46   O     O_R   0.668330 0.076720 0.330650 -0.524174
O47   O     O_R   0.831670 0.576720 0.669350 -0.532643
O48   O     O_R   0.168330 0.576720 0.330650 -0.524561
O49   O     O_3   0.360821 0.817704 0.027148 -0.577829
O50   O     O_3   0.637722 0.824710 0.967835 -0.565822
O51   O     O_3   0.860474 0.316318 0.025512 -0.580544
O52   O     O_3   0.139049 0.318607 0.974337 -0.578693
O53   O     O_R   0.554100 0.919370 0.323500 -0.503172
O54   O     O_R   0.945900 0.419370 0.676500 -0.498451
O55   O     O_R   0.054100 0.419370 0.323500 -0.503960
O56   O     O_R   0.456660 0.717710 0.669820 -0.512907

loop_
_geom_bond_atom_site_label_1
_geom_bond_atom_site_label_2
_ccdc_geom_bond_type
Cr11  O13   S    
C18   C70   S    
C83   C87   A    
Cr12  O9    S    
C76   H23   S    
C4    O56   A    
Cr4   O13   S    
C39   H40   S    
C87   C91   A    
C98   H7    S    
C35   C53   S    
C30   C114  A    
C14   C18   S    
C13   C32   A    
C19   C23   S    
C111  H25   S    
C38   C55   S    
C86   C104  A    
Cr4   O8    S    
C12   H31   S    
C71   C79   S    
C117  O35   A    
C8    C118  S    
C90   C95   A    
C57   C115  S    
C11   C121  S    
C86   C90   A    
C61   C75   A    
C28   H75   S    
C34   C56   A    
C105  H14   S    
C20   C92   S    
C116  O23   A    
C45   H47   S    
Cr10  O47   S    
C28   O51   S    
C32   C36   A    
C14   C21   S    
C96   C118  A    
C16   C20   S    
C26   H66   S    
C32   C50   S    
C41   C58   A    
Cr5   O41   S    
C95   C112  S    
C43   C114  A    
C122  O40   A    
C3    O43   A    
C15   C25   S    
C27   O50   S    
C6    O54   A    
C20   C25   S    
C123  O46   A    
C46   H48   S    
C15   C16   S    
C55   H65   S    
C4    C62   S    
C94   C111  S    
C54   H64   S    
C15   H33   S    
C27   H72   S    
Cr9   O19   S    
C3    C83   S    
C6    C64   S    
C89   C94   A    
C69   C71   A    
C70   C81   S    
Cr8   O22   S    
C53   H59   S    
C22   C66   S    
C17   O49   S    
C34   C52   S    
C92   C103  S    
C111  H29   S    
C96   H5    S    
C15   C19   S    
C94   C120  A    
C1    O14   A    
C79   H78   S    
C108  H17   S    
C5    O2    A    
C2    C44   A    
C77   H34   S    
C12   C17   S    
C86   C122  S    
C82   H4    S    
C56   C113  S    
C78   H80   S    
C43   H44   S    
C37   O19   A    
C84   C124  S    
Cr3   O29   S    
Cr9   O24   S    
Cr4   O4    S    
C51   C55   S    
C107  H20   S    
Cr7   O34   S    
Cr3   O7    S    
C93   C110  S    
C99   C121  A    
C26   O49   S    
C66   O24   A    
C95   C121  A    
Cr5   O12   S    
C99   C104  A    
C124  O42   A    
Cr11  O48   S    
C36   C54   S    
C18   C22   S    
C58   C116  S    
C84   C101  A    
C82   H56   S    
C20   O52   S    
C69   C78   S    
C59   O17   A    
C25   C68   S    
C19   C103  S    
C31   C49   S    
Cr1   O9    S    
C109  H22   S    
C9    O6    A    
C113  O1    A    
Cr6   O42   S    
C1    O18   A    
Cr8   O18   S    
C4    O45   A    
Cr2   O28   S    
C76   C77   A    
C67   O25   A    
Cr9   O46   S    
C101  H10   S    
C74   H1    S    
Cr6   O23   S    
Cr4   O35   S    
C54   H60   S    
C74   C75   A    
C30   C34   A    
Cr10  O20   S    
Cr3   O3    S    
C53   H63   S    
C22   C81   S    
C99   H8    S    
C52   H58   S    
Cr9   O10   S    
Cr2   O10   S    
Cr8   O44   S    
Cr1   O14   S    
C51   H57   S    
C42   C60   A    
C18   O50   S    
C85   C89   A    
C78   C79   S    
C25   C103  S    
C39   C43   A    
C49   H54   S    
C124  O47   A    
C2    C48   S    
C28   H73   S    
C113  O31   A    
Cr2   O32   S    
Cr7   O17   S    
C63   C72   A    
Cr11  O21   S    
Cr12  O31   S    
C2    C31   A    
Cr3   O33   S    
C42   H43   S    
C123  O41   A    
C104  H13   S    
C47   H53   S    
Cr1   O40   S    
C26   H68   S    
Cr10  O25   S    
C24   C33   A    
C102  H11   S    
C75   H12   S    
C88   C106  S    
C30   C47   S    
C29   H77   S    
C39   C56   A    
C87   C105  S    
Cr6   O16   S    
C100  H9    S    
C64   C73   A    
Cr9   O53   S    
C112  H30   S    
C89   C107  S    
C103  H39   S    
C64   C76   A    
C91   C118  A    
C68   O26   A    
C60   C117  S    
Cr12  O56   S    
C65   O27   A    
C50   C54   S    
C80   H45   S    
C78   H67   S    
C50   H55   S    
C7    C63   S    
Cr11  O55   S    
C48   O20   A    
C10   O7    A    
C1    C24   S    
C38   C60   A    
C107  H16   S    
Cr6   O38   S    
C70   H36   S    
C12   C14   S    
Cr6   O11   S    
C106  H19   S    
C16   C23   S    
C83   C100  A    
C42   C46   A    
C9    C119  S    
C12   C22   S    
Cr7   O43   S    
C65   O22   A    
Cr8   O45   S    
C26   H69   S    
C68   O30   A    
C7    O4    A    
Cr7   O39   S    
C14   H32   S    
C44   H46   S    
C73   C82   S    
C40   C57   A    
C110  H24   S    
Cr11  O26   S    
C29   H76   S    
C19   O51   S    
C115  O32   A    
C63   C77   A    
C122  O44   A    
Cr10  O54   S    
C37   O15   A    
C105  C109  S    
C88   C93   A    
C8    O36   A    
C110  H28   S    
C106  H15   S    
Cr12  O27   S    
C59   O21   A    
C21   C65   S    
C10   O38   A    
C107  C111  S    
Cr1   O36   S    
C9    O37   A    
C84   C88   A    
Cr5   O37   S    
C72   C73   A    
C11   O8    A    
C117  O34   A    
Cr2   O6    S    
C98   C120  A    
C47   C52   S    
C108  H21   S    
Cr5   O10   S    
C41   H42   S    
C33   C51   S    
C80   H3    S    
C112  H26   S    
Cr5   O15   S    
C36   C58   A    
C33   C38   A    
C21   C70   S    
C35   C57   A    
C27   H70   S    
C92   H38   S    
Cr10  O11   S    
C91   C109  S    
C7    O55   A    
C11   O39   A    
C28   H74   S    
Cr4   O30   S    
C115  O12   A    
C72   C80   S    
C51   H50   S    
C98   C102  A    
Cr8   O9    S    
C13   C45   A    
C67   O29   A    
C16   H35   S    
Cr7   O13   S    
C55   H61   S    
C49   H52   S    
C66   O28   A    
C13   C37   S    
Cr3   O11   S    
C59   C114  S    
C49   C53   S    
Cr2   O2    S    
C96   C100  A    
C31   C35   A    
C105  H18   S    
C97   C119  A    
C80   C82   S    
C62   C71   A    
C85   C123  S    
C109  H27   S    
C17   C81   S    
C61   C69   A    
Cr12  O5    S    
C5    O53   A    
C17   C21   S    
C97   H6    S    
C29   H79   S    
C23   C67   S    
C85   C102  A    
C90   C108  S    
C40   H41   S    
C48   O16   A    
C108  C112  S    
C40   C44   A    
C79   H2    S    
C52   H62   S    
C6    O3    A    
C27   H71   S    
C106  C110  S    
C3    O48   A    
C116  O33   A    
C29   O52   S    
C41   C45   A    
C23   C92   S    
C62   C74   A    
C93   C119  A    
C50   H49   S    
C47   H51   S    
C10   C120  S    
C97   C101  A    
C8    O5    A    
C5    C61   S    
C81   H37   S    
C24   C46   A    
Cr1   O1    S    
