data_str_m4_o4_o4_f0_acs.sym.27
_audit_creation_date              2012-12-11T15:52:20-0500
_audit_creation_method            fapswitch 2.2
_symmetry_space_group_name_H-M    P1
_symmetry_Int_Tables_number       1
_space_group_crystal_system       triclinic
_cell_length_a                    11.01669
_cell_length_b                    11.034072
_cell_length_c                    18.826239
_cell_angle_alpha                 89.917894
_cell_angle_beta                  90.193683
_cell_angle_gamma                 120.121262
_cell_volume                      1979.45973018

loop_
_atom_site_label
_atom_site_type_symbol
_atom_type_description
_atom_site_fract_x
_atom_site_fract_y
_atom_site_fract_z
_atom_type_partial_charge
C1    C     C_R   0.518285 0.458909 0.148431 0.596891
C2    C     C_3   0.957677 0.709596 0.459962 -0.270115
C3    C     C_3   0.751403 0.034041 0.467865 -0.265979
C4    C     C_3   0.284444 0.248172 0.459166 -0.269040
C5    C     C_R   0.517586 0.457991 0.353069 0.567300
C6    C     C_R   0.544496 0.064486 0.354752 0.567587
C7    C     C_R   0.941110 0.482872 0.352853 0.567671
C8    C     C_R   0.454352 0.521484 0.644419 0.546592
C9    C     C_R   0.070013 0.547160 0.643699 0.544015
C10   C     C_R   0.480782 0.938694 0.646447 0.548047
C11   C     C_R   0.505348 0.969266 0.930659 0.018040
C12   C     C_R   0.541231 0.061165 0.147791 0.600276
C13   C     C_R   0.028981 0.536511 0.930176 0.022357
C14   C     C_R   0.441309 0.513736 0.935324 0.020256
C15   C     C_R   0.006168 0.504558 0.078918 0.056578
C16   C     C_R   0.495042 0.991418 0.079336 0.066285
C17   C     C_R   0.488494 0.506562 0.082028 0.070025
C18   C     C_R   0.420447 0.012851 0.961537 -0.039998
C19   C     C_R   0.977868 0.407496 0.960976 -0.033188
C20   C     C_R   0.573935 0.589753 0.964112 -0.034344
C21   C     C_R   0.963257 0.390599 0.033436 -0.044676
C22   C     C_R   0.419205 0.028882 0.033805 -0.034246
C23   C     C_R   0.938794 0.480656 0.147871 0.603834
C24   C     C_R   0.598246 0.583649 0.035232 -0.035772
C25   C     C_R   0.560751 0.921059 0.050918 -0.045553
C26   C     C_R   0.077082 0.640747 0.050085 -0.045463
C27   C     C_R   0.349203 0.443905 0.056381 -0.036729
C28   C     C_R   0.070336 0.656698 0.975571 -0.053050
C29   C     C_R   0.585324 0.928981 0.976491 -0.059069
C30   C     C_R   0.326042 0.427539 0.981798 -0.064116
C31   C     C_3   0.416174 0.143357 0.947049 -0.260826
C32   C     C_3   0.839618 0.281491 0.947046 -0.267617
C33   C     C_3   0.701500 0.584525 0.943446 -0.245301
C34   C     C_R   0.423259 0.540060 0.860750 0.551287
C35   C     C_3   0.824870 0.259402 0.026557 -0.251597
C36   C     C_3   0.413795 0.160903 0.026760 -0.253212
C37   C     C_3   0.730479 0.581241 0.021935 -0.260739
C38   C     C_R   0.501754 0.004806 0.577604 0.016690
C39   C     C_R   0.042687 0.526980 0.568099 0.018236
C40   C     C_R   0.476570 0.511610 0.569290 0.017565
C41   C     C_R   0.015948 0.514831 0.420083 0.027506
C42   C     C_R   0.521067 0.028908 0.429312 0.024068
C43   C     C_R   0.487775 0.500188 0.420825 0.027923
C44   C     C_R   0.632211 0.063460 0.544319 0.018695
C45   C     C_R   0.070172 0.550305 0.855335 0.546903
C46   C     C_R   0.051710 0.639161 0.529906 0.031769
C47   C     C_R   0.362553 0.411445 0.530393 0.038084
C48   C     C_R   0.039638 0.634543 0.457523 0.027865
C49   C     C_R   0.640201 0.073101 0.471725 0.038205
C50   C     C_R   0.366582 0.405582 0.457914 0.033782
C51   C     C_R   0.393019 0.990013 0.462483 -0.171262
C52   C     C_R   0.036087 0.414565 0.455865 -0.152307
C53   C     C_R   0.592178 0.617131 0.457584 -0.169092
C54   C     C_R   0.047800 0.419668 0.530208 -0.155238
C55   C     C_R   0.383653 0.979179 0.536560 -0.165813
C56   C     C_R   0.480036 0.929583 0.855507 0.544978
C57   C     C_R   0.588252 0.621179 0.532003 -0.168277
C58   C     C_2   0.615321 0.854384 0.100869 0.245102
C59   C     C_2   0.144421 0.763414 0.099052 0.246126
C60   C     C_2   0.231054 0.386784 0.108144 0.250520
C61   C     C_2   0.090461 0.794014 0.949620 0.233800
C62   C     C_2   0.704390 0.909455 0.951982 0.222900
C63   C     C_2   0.189929 0.305893 0.956819 0.221879
C64   C     C_3   0.747016 0.028150 0.548026 -0.266922
C65   C     C_3   0.971991 0.714019 0.539746 -0.277658
C66   C     C_3   0.282304 0.256295 0.539168 -0.277613
Cr1   Cr    Cr6+3 0.769160 0.541570 0.250690 1.040851
Cr2   Cr    Cr6+3 0.458430 0.227590 0.250690 1.041777
Cr3   Cr    Cr6+3 0.772410 0.230840 0.250690 1.042713
Cr4   Cr    Cr6+3 0.541570 0.769160 0.749310 1.065575
Cr5   Cr    Cr6+3 0.227590 0.458430 0.749310 1.068652
Cr6   Cr    Cr6+3 0.230840 0.772410 0.749310 1.062372
H1    H     H_    0.317229 0.119003 0.919941 0.218991
H2    H     H_    0.831056 0.166728 0.044488 0.147507
H3    H     H_    0.312952 0.148366 0.046167 0.146878
H4    H     H_    0.824403 0.678519 0.040931 0.147809
H5    H     H_    0.300249 0.964184 0.431365 0.127424
H6    H     H_    0.032358 0.328104 0.427201 0.121968
H7    H     H_    0.681997 0.698114 0.429705 0.119167
H8    H     H_    0.056158 0.338457 0.557901 0.126857
H9    H     H_    0.281810 0.938664 0.560796 0.139532
H10   H     H_    0.674352 0.705781 0.560290 0.120172
H11   H     H_    0.713211 0.921990 0.568270 0.163942
H12   H     H_    0.854406 0.204267 0.917352 0.225229
H13   H     H_    0.037554 0.821755 0.560959 0.138120
H14   H     H_    0.175506 0.216767 0.560990 0.135786
H15   H     H_    0.847783 0.641589 0.442653 0.166079
H16   H     H_    0.851452 0.118677 0.446535 0.138071
H17   H     H_    0.345887 0.200154 0.440605 0.169699
H18   H     H_    0.843519 0.112818 0.573447 0.131412
H19   H     H_    0.870754 0.648978 0.567748 0.142003
H20   H     H_    0.344800 0.215928 0.566188 0.145121
H21   H     H_    0.014358 0.814794 0.434712 0.133069
H22   H     H_    0.713245 0.930243 0.442500 0.141953
H23   H     H_    0.776165 0.682217 0.916010 0.226488
H24   H     H_    0.178874 0.205174 0.434550 0.128989
H25   H     H_    0.717368 0.864232 0.094189 0.072605
H26   H     H_    0.137573 0.856679 0.090067 0.072083
H27   H     H_    0.135214 0.288414 0.099470 0.070905
H28   H     H_    0.157056 0.889396 0.977624 0.097557
H29   H     H_    0.739248 0.851558 0.983450 0.096375
H30   H     H_    0.096981 0.265441 0.988584 0.100046
H31   H     H_    0.737213 0.269152 0.048975 0.126050
H32   H     H_    0.509707 0.254131 0.047167 0.127811
H33   H     H_    0.724492 0.482073 0.038940 0.124699
H34   H     H_    0.513039 0.226189 0.921243 0.129939
H35   H     H_    0.762690 0.307090 0.923329 0.123568
H36   H     H_    0.676756 0.486601 0.914896 0.135010
O1    O     O_R   0.911480 0.572650 0.170990 -0.510302
O2    O     O_R   0.528970 0.640340 0.824320 -0.490191
O3    O     O_R   0.111370 0.471030 0.824320 -0.497550
O4    O     O_R   0.359660 0.888630 0.824320 -0.496330
O5    O     O_R   0.909980 0.572450 0.331530 -0.517562
O6    O     O_R   0.427550 0.337530 0.331530 -0.516011
O7    O     O_R   0.662470 0.090020 0.331530 -0.509027
O8    O     O_R   0.572450 0.909980 0.668470 -0.521076
O9    O     O_R   0.337530 0.427550 0.668470 -0.514096
O10   O     O_R   0.090020 0.662470 0.668470 -0.514648
O11   O     O_R   0.638950 0.528780 0.324500 -0.506126
O12   O     O_R   0.427350 0.338830 0.170990 -0.515635
O13   O     O_R   0.471220 0.110170 0.324500 -0.505371
O14   O     O_R   0.889830 0.361050 0.324500 -0.500933
O15   O     O_R   0.528780 0.638950 0.675500 -0.504853
O16   O     O_R   0.110170 0.471220 0.675500 -0.507845
O17   O     O_R   0.361050 0.889830 0.675500 -0.508668
O18   O     O_3   0.666667 0.333333 0.250560 -0.281443
O19   O     O_3   0.333333 0.666667 0.749440 -0.299851
O20   O     O_2   0.545840 0.789653 0.152416 -0.437975
O21   O     O_2   0.207383 0.759500 0.151735 -0.438339
O22   O     O_2   0.241445 0.450832 0.162814 -0.436840
O23   O     O_R   0.661170 0.088520 0.170990 -0.515396
O24   O     O_2   0.021925 0.802127 0.900847 -0.476896
O25   O     O_2   0.776269 0.968388 0.900297 -0.469501
O26   O     O_2   0.181074 0.236349 0.904862 -0.464403
O27   O     O_R   0.572650 0.911480 0.829010 -0.455801
O28   O     O_R   0.338830 0.427350 0.829010 -0.443993
O29   O     O_R   0.088520 0.661170 0.829010 -0.453595
O30   O     O_R   0.640340 0.528970 0.175680 -0.497722
O31   O     O_R   0.471030 0.111370 0.175680 -0.497319
O32   O     O_R   0.888630 0.359660 0.175680 -0.500381

loop_
_geom_bond_atom_site_label_1
_geom_bond_atom_site_label_2
_ccdc_geom_bond_type
C44   C49   A    
Cr4   O19   S    
C40   C47   A    
C13   C45   S    
Cr6   O4    S    
C35   H2    S    
C58   O20   D    
C12   O23   A    
C5    O6    A    
C64   H18   S    
C2    C65   S    
C3    C49   S    
C11   C18   A    
C3    C64   S    
C44   C64   S    
C37   H33   S    
C58   H25   S    
C5    O11   A    
C62   O25   D    
C53   H7    S    
C66   H14   S    
C35   H31   S    
C27   C60   S    
C31   C36   S    
C31   H1    S    
C39   C54   A    
C9    C39   S    
C9    O16   A    
Cr1   O30   S    
Cr4   O2    S    
C61   O24   D    
C4    H24   S    
Cr4   O15   S    
C43   C53   A    
C59   O21   D    
C38   C55   A    
C20   C24   A    
C52   C54   A    
C32   H35   S    
Cr5   O3    S    
C13   C28   A    
C55   H9    S    
C10   O17   A    
C26   C59   S    
C47   C66   S    
C42   C51   A    
C62   H29   S    
C28   C61   S    
C60   H27   S    
Cr3   O32   S    
C15   C23   S    
C5    C43   S    
C30   C63   S    
C27   C30   A    
C9    O10   A    
Cr5   O19   S    
C33   H36   S    
C14   C30   A    
C63   H30   S    
C52   H6    S    
C19   C32   S    
C33   H23   S    
Cr1   O1    S    
C8    O9    A    
C47   C50   A    
C54   H8    S    
C25   C29   A    
C32   H12   S    
C46   C48   A    
C17   C24   A    
Cr5   O9    S    
Cr6   O19   S    
C17   C27   A    
C32   C35   S    
C12   C16   S    
Cr5   O16   S    
C46   C65   S    
Cr1   O18   S    
C60   O22   D    
Cr5   O28   S    
C13   C19   A    
C15   C26   A    
C66   H20   S    
Cr4   O8    S    
C33   C37   S    
C4    C50   S    
C1    O12   A    
C63   O26   D    
C51   H5    S    
C64   H11   S    
C38   C44   A    
C36   H3    S    
C14   C20   A    
C23   O32   A    
C34   O28   A    
Cr3   O23   S    
C45   O29   A    
C24   C37   S    
C12   O31   A    
C2    H15   S    
C8    O15   A    
C39   C46   A    
C20   C33   S    
Cr6   O29   S    
C37   H4    S    
Cr3   O18   S    
Cr4   O27   S    
C34   O2    A    
C31   H34   S    
C61   H28   S    
C25   C58   S    
C7    O14   A    
Cr2   O18   S    
C56   O27   A    
C10   O8    A    
C4    H17   S    
C16   C25   A    
C65   H19   S    
C29   C62   S    
Cr3   O7    S    
C16   C22   A    
C40   C57   A    
C41   C52   A    
C19   C21   A    
C3    H16   S    
C18   C22   A    
C26   C28   A    
C2    H21   S    
C53   C57   A    
Cr2   O13   S    
C14   C34   S    
C45   O3    A    
C43   C50   A    
C65   H13   S    
C21   C35   S    
C22   C36   S    
C1    C17   S    
C36   H32   S    
Cr6   O17   S    
C10   C38   S    
C2    C48   S    
C7    O5    A    
Cr1   O5    S    
Cr2   O12   S    
C4    C66   S    
Cr3   O14   S    
C41   C48   A    
C3    H22   S    
C51   C55   A    
C7    C41   S    
C6    O7    A    
C1    O30   A    
C42   C49   A    
C15   C21   A    
C11   C29   A    
C6    C42   S    
Cr6   O10   S    
C59   H26   S    
C57   H10   S    
Cr2   O31   S    
C18   C31   S    
C8    C40   S    
C6    O13   A    
Cr1   O11   S    
C56   O4    A    
C11   C56   S    
C23   O1    A    
Cr2   O6    S    
