data_str_m12_o9_o10_f0_bcu.sym.11
_audit_creation_date              2012-12-11T17:37:36-0500
_audit_creation_method            fapswitch 2.2
_symmetry_space_group_name_H-M    P1
_symmetry_Int_Tables_number       1
_space_group_crystal_system       triclinic
_cell_length_a                    13.215053
_cell_length_b                    13.003009
_cell_length_c                    15.467209
_cell_angle_alpha                 117.032836
_cell_angle_beta                  63.1332
_cell_angle_gamma                 97.83143
_cell_volume                      2103.8865757

loop_
_atom_site_label
_atom_site_type_symbol
_atom_type_description
_atom_site_fract_x
_atom_site_fract_y
_atom_site_fract_z
_atom_type_partial_charge
C1    C     C_R   0.000949 0.833398 0.056142 -0.114992
C2    C     C_R   0.299843 0.589689 0.787546 -0.121710
C3    C     C_R   0.257027 0.433117 0.064044 -0.113315
C4    C     C_R   0.680592 0.480505 0.221773 -0.130987
C5    C     C_R   0.009296 0.285151 0.688546 -0.116783
C6    C     C_R   0.359320 0.462992 0.002508 0.067466
C7    C     C_R   0.962731 0.181119 0.685696 0.062190
C8    C     C_R   0.301736 0.550617 0.686988 0.037207
C9    C     C_R   0.029396 0.143982 0.019835 0.085866
C10   C     C_R   0.349058 0.024079 0.167533 -0.126734
C11   C     C_R   0.275177 0.016330 0.263160 -0.153286
C12   C     C_R   0.676176 0.560381 0.322110 0.049907
C13   C     C_R   0.156784 0.037263 0.305919 0.151091
C14   C     C_R   0.114083 0.068505 0.252171 -0.217523
C15   C     C_R   0.187745 0.074998 0.155989 -0.233024
C16   C     C_R   0.758353 0.512088 0.889248 -0.093588
C17   C     C_R   0.305893 0.053082 0.112616 -0.001517
C18   C     C_R   0.002735 0.090865 0.495292 0.227844
C19   C     C_R   0.973658 0.076931 0.588353 0.020003
C20   C     C_R   0.995536 0.967904 0.578837 -0.000494
C21   C     C_R   0.060345 0.880589 0.477991 -0.254148
C22   C     C_R   0.092868 0.896261 0.386208 0.018022
C23   C     C_R   0.664561 0.453610 0.926129 0.078690
C24   C     C_R   0.080442 0.007689 0.395925 -0.018194
C25   C     C_R   0.988508 0.895871 0.706025 -0.181489
C26   C     C_R   0.926758 0.858765 0.785922 -0.154684
C27   C     C_R   0.808408 0.856991 0.825189 -0.083188
C28   C     C_R   0.020962 0.702666 0.299719 -0.154799
C29   C     C_R   0.751799 0.891685 0.784207 -0.079648
C30   C     C_R   0.813035 0.929462 0.704788 -0.196217
C31   C     C_R   0.931615 0.933039 0.666244 0.132312
C32   C     C_R   0.866728 0.394749 0.368186 -0.120201
C33   C     C_R   0.748900 0.418013 0.413790 0.350793
C34   C     C_R   0.081700 0.797902 0.295875 0.098466
C35   C     C_R   0.700124 0.532205 0.492390 0.083633
C36   C     C_R   0.764094 0.612415 0.539480 -0.142393
C37   C     C_R   0.880910 0.587515 0.493896 -0.138444
C38   C     C_R   0.932627 0.482531 0.402513 -0.207856
C39   C     C_R   0.497878 0.581764 0.598978 -0.235544
C40   C     C_R   0.679139 0.418881 0.990738 -0.151022
C41   C     C_R   0.391061 0.573923 0.600188 0.065288
C42   C     C_R   0.379539 0.577342 0.514628 0.026139
C43   C     C_R   0.472463 0.602144 0.438254 -0.239225
C44   C     C_R   0.580296 0.588423 0.427557 0.072258
C45   C     C_R   0.337069 0.538118 0.970884 -0.049894
C46   C     C_R   0.592719 0.575763 0.508765 0.010061
C47   C     C_R   0.339866 0.403715 0.382136 -0.167265
C48   C     C_R   0.267628 0.337252 0.339589 -0.095817
C49   C     C_R   0.152589 0.373435 0.392213 -0.128091
C50   C     C_R   0.110513 0.478621 0.485926 -0.128259
C51   C     C_R   0.184202 0.551492 0.523531 -0.175359
C52   C     C_R   0.101494 0.797096 0.201193 -0.124627
C53   C     C_R   0.298489 0.511071 0.474590 0.120686
C54   C     C_2   0.466086 0.440136 0.994843 -0.225256
C55   C     C_2   0.562950 0.435555 0.910798 -0.133454
C56   C     C_R   0.921835 0.189554 0.787969 -0.136568
C57   C     C_2   0.837042 0.960834 0.095399 -0.187797
C58   C     C_2   0.835753 0.052455 0.183169 -0.163102
C59   C     C_R   0.785551 0.576590 0.309077 -0.108517
C60   C     C_R   0.897354 0.748773 0.965295 -0.092315
C61   C     C_R   0.912217 0.853667 0.039144 0.085014
C62   C     C_2   0.383424 0.063750 0.012255 0.962332
C63   C     C_3   0.943249 0.187661 0.502248 -1.011761
C64   C     C_2   0.796187 0.536875 0.795465 0.949221
C65   C     C_3   0.680764 0.323872 0.369840 -1.026868
C66   C     C_2   0.404899 0.632961 0.953482 0.942464
C67   C     C_R   0.205312 0.493066 0.689650 -0.100238
C68   C     C_R   0.063621 0.250530 0.074097 -0.104970
C69   C     C_R   0.965683 0.166628 0.978114 -0.125100
H1    H     H_    0.031295 0.895045 0.112612 0.109530
H2    H     H_    0.310139 0.990539 0.302346 0.126719
H3    H     H_    0.609543 0.447365 0.203389 0.098716
H4    H     H_    0.023835 0.079917 0.279850 0.126415
H5    H     H_    0.151775 0.094392 0.114291 0.163263
H6    H     H_    0.071385 0.795259 0.470338 0.131725
H7    H     H_    0.080139 0.896155 0.675554 0.128906
H8    H     H_    0.971210 0.831104 0.816646 0.145472
H9    H     H_    0.759976 0.828247 0.886810 0.105331
H10   H     H_    0.660624 0.888256 0.813251 0.158737
H11   H     H_    0.768417 0.955265 0.672805 0.130269
H12   H     H_    0.869368 0.133084 0.820577 0.127663
H13   H     H_    0.023927 0.470009 0.357077 0.130896
H14   H     H_    0.907952 0.311265 0.301739 0.118112
H15   H     H_    0.726341 0.698628 0.601983 0.127616
H16   H     H_    0.932283 0.653274 0.523748 0.123641
H17   H     H_    0.510773 0.571324 0.659089 0.175041
H18   H     H_    0.464101 0.605105 0.372690 0.132927
H19   H     H_    0.428770 0.372183 0.342257 0.119343
H20   H     H_    0.301118 0.257699 0.266590 0.129341
H21   H     H_    0.096503 0.320009 0.359525 0.121744
H22   H     H_    0.020820 0.503139 0.529454 0.148817
H23   H     H_    0.176002 0.452254 0.628571 0.130591
H24   H     H_    0.000628 0.669965 0.357383 0.109311
H25   H     H_    0.151209 0.634024 0.594724 0.127630
H26   H     H_    0.463723 0.440140 0.065982 0.142162
H27   H     H_    0.563910 0.431817 0.839139 0.216251
H28   H     H_    0.777586 0.964516 0.066091 0.139931
H29   H     H_    0.890835 0.054510 0.218395 0.121921
H30   H     H_    0.632807 0.356608 0.019311 0.117224
H31   H     H_    0.161965 0.843210 0.160460 0.166282
H32   H     H_    0.812257 0.637679 0.368535 0.119496
H33   H     H_    0.828444 0.733109 0.943284 0.107183
H34   H     H_    0.105922 0.266840 0.123994 0.092101
H35   H     H_    0.400183 0.098346 0.891925 0.328555
H36   H     H_    0.877640 0.240523 0.585584 0.263345
H37   H     H_    0.005438 0.245032 0.475599 0.255037
H38   H     H_    0.896798 0.150951 0.451807 0.247953
H39   H     H_    0.913352 0.605378 0.702810 0.312912
H40   H     H_    0.690956 0.247996 0.380912 0.260171
H41   H     H_    0.588490 0.351534 0.411714 0.256239
H42   H     H_    0.711991 0.297116 0.282220 0.259195
H43   H     H_    0.541988 0.683017 0.856642 0.329790
H44   H     H_    0.919482 0.104886 0.937572 0.117736
H45   H     H_    0.351100 0.653993 0.818475 0.130617
H46   H     H_    0.244470 0.386592 0.110357 0.110934
H47   H     H_    0.046059 0.311615 0.624588 0.133521
H48   H     H_    0.439766 0.006718 0.136332 0.153645
N1    N     N_R   0.037320 0.720000 0.995830 -0.051417
N2    N     N_R   0.824900 0.517970 0.936430 -0.060321
N3    N     N_R   0.003190 0.648180 0.211390 -0.044258
N4    N     N_R   0.774330 0.457010 0.995830 -0.050370
N5    N     N_R   0.053760 0.709130 0.151980 -0.049062
N6    N     N_R   0.853840 0.498830 0.211390 -0.042777
N7    N     N_R   0.974250 0.667320 0.936430 -0.023355
N8    N     N_R   0.225670 0.542990 0.004170 -0.068770
N9    N     N_R   0.946240 0.290870 0.848020 -0.045176
N10   N     N_R   0.146160 0.501170 0.788610 -0.038059
N11   N     N_R   0.025750 0.332680 0.063570 -0.045089
N12   N     N_R   0.962680 0.280000 0.004170 -0.046450
N13   N     N_R   0.209230 0.553860 0.848010 -0.053840
N14   N     N_R   0.175100 0.482030 0.063570 -0.051184
N15   N     N_R   0.996810 0.351820 0.788610 -0.039845
N16   N     N_R   0.790770 0.446140 0.151990 -0.043496
Ni1   Ni    Ni4+2 0.130310 0.630310 0.000000 0.243165
Ni2   Ni    Ni4+2 0.869690 0.369690 0.000000 0.213741
Ni3   Ni    Ni4+2 0.985660 0.509480 0.863750 0.257593
Ni4   Ni    Ni4+2 0.014340 0.490520 0.136250 0.209872
O1    O     O_2   0.486582 0.048695 0.976565 -0.682870
O2    O     O_R   0.338768 0.092452 0.958671 -0.817399
O3    O     O_2   0.734459 0.523613 0.752277 -0.624459
O4    O     O_R   0.903980 0.574819 0.755338 -0.833078
O5    O     O_2   0.369693 0.733120 0.021000 -0.670656
O6    O     O_R   0.505410 0.609917 0.858976 -0.803092

loop_
_geom_bond_atom_site_label_1
_geom_bond_atom_site_label_2
_ccdc_geom_bond_type
N8    Ni1   S    
C25   C31   A    
C6    C45   A    
C27   C29   A    
C2    H45   S    
C41   C42   A    
C35   C36   A    
C58   H29   S    
C68   H34   S    
C49   H21   S    
C43   C44   A    
C3    C6    A    
N11   N12   A    
C40   H30   S    
C33   C65   S    
C56   H12   S    
C39   C41   A    
C40   N4    A    
C69   H44   S    
C26   C27   A    
C29   C30   A    
N6    N16   A    
C3    N14   A    
H43   O6    S    
C37   H16   S    
C36   C37   A    
C9    C69   A    
C42   C53   S    
C30   C31   A    
C11   H2    S    
C18   C63   S    
C64   O4    S    
C10   C17   A    
C23   C40   A    
C18   C19   A    
C60   N7    A    
N5    Ni1   S    
C33   C35   A    
N12   Ni2   S    
C12   C59   A    
C52   N5    A    
C5    N15   A    
C65   H42   S    
C19   C20   A    
C45   N8    A    
C32   C38   A    
C62   O2    S    
C4    C12   A    
C68   N11   A    
N1    Ni1   S    
C47   C53   A    
C30   H11   S    
C27   H9    S    
C28   C34   A    
C13   C14   A    
C38   H13   S    
N13   Ni1   S    
C7    C56   A    
C6    C54   S    
C60   H33   S    
H39   O4    S    
C44   C46   A    
N2    N4    A    
C59   N6    A    
C22   C34   S    
C26   H8    S    
N7    Ni3   S    
C59   H32   S    
C14   H4    S    
C8    C41   S    
C28   N3    A    
C16   N2    A    
C5    C7    A    
C66   O6    S    
C25   C26   A    
C52   H31   S    
N4    Ni2   S    
C13   C24   S    
C28   H24   S    
C51   C53   A    
N11   Ni4   S    
C37   C38   A    
N14   Ni4   S    
C67   N10   A    
C17   C62   S    
N8    N14   A    
C47   C48   A    
C29   H10   S    
N9    N15   A    
N15   Ni3   S    
C57   H28   S    
C50   C51   A    
N1    N7    A    
N10   Ni3   S    
C63   H37   S    
C57   C61   S    
C65   H40   S    
C54   H26   S    
C39   C46   A    
C48   C49   A    
C62   O1    D    
N9    Ni2   S    
C16   C23   A    
C7    C19   S    
C48   H20   S    
C5    H47   S    
C18   C24   A    
C63   H36   S    
C42   C43   A    
C63   H38   S    
C56   N9    A    
C4    H3    S    
N3    N5    A    
C64   O3    D    
C15   C17   A    
C32   H14   S    
N6    Ni4   S    
C54   C55   D    
C2    C8    A    
C1    H1    S    
C55   H27   S    
C1    C61   A    
C23   C55   S    
C66   O5    D    
C21   H6    S    
C34   C52   A    
N2    Ni3   S    
H35   O2    S    
C25   H7    S    
C43   H18   S    
C47   H19   S    
N10   N13   A    
C12   C44   S    
C10   H48   S    
C3    H46   S    
C32   C33   A    
C11   C13   A    
C57   C58   D    
C36   H15   S    
C67   H23   S    
C2    N13   A    
C22   C24   A    
C1    N1    A    
C65   H41   S    
C9    C68   A    
C10   C11   A    
C51   H25   S    
C50   H22   S    
C15   H5    S    
C20   C21   A    
C8    C67   A    
C69   N12   A    
C49   C50   A    
C45   C66   S    
N16   Ni2   S    
C14   C15   A    
C60   C61   A    
N3    Ni4   S    
C16   C64   S    
C39   H17   S    
C21   C22   A    
C35   C46   S    
C4    N16   A    
C20   C31   S    
