data_str_m12_o1_o10_f0_bcu.sym.102
_audit_creation_date              2012-12-11T15:20:17-0500
_audit_creation_method            fapswitch 2.2
_symmetry_space_group_name_H-M    P1
_symmetry_Int_Tables_number       1
_space_group_crystal_system       triclinic
_cell_length_a                    12.919374
_cell_length_b                    13.041696
_cell_length_c                    15.281584
_cell_angle_alpha                 117.053735
_cell_angle_beta                  63.324933
_cell_angle_gamma                 97.624217
_cell_volume                      2040.72053592

loop_
_atom_site_label
_atom_site_type_symbol
_atom_type_description
_atom_site_fract_x
_atom_site_fract_y
_atom_site_fract_z
_atom_type_partial_charge
C1    C     C_R   0.997036 0.832503 0.057939 -0.147877
C2    C     C_R   0.670094 0.561280 0.322667 0.101619
C3    C     C_R   0.662602 0.458297 0.924041 0.173004
C4    C     C_R   0.077389 0.796145 0.304654 -0.075170
C5    C     C_R   0.338463 0.510134 0.944280 -0.131499
C6    C     C_R   0.981771 0.178995 0.781233 -0.174532
C7    C     C_R   0.197720 0.509280 0.694776 -0.145828
C8    C     C_R   0.049186 0.257735 0.091625 -0.266956
C9    C     C_R   0.943713 0.174523 0.002697 0.507351
C10   C     C_R   0.300186 0.593945 0.788563 -0.161414
C11   C     C_R   0.259391 0.413944 0.044686 -0.120748
C12   C     C_R   0.678130 0.481245 0.220189 -0.193487
C13   C     C_R   0.063680 0.278776 0.684980 -0.111369
C14   C     C_R   0.362494 0.428673 0.968131 0.152207
C15   C     C_R   0.057958 0.168683 0.678463 0.051059
C16   C     C_R   0.296177 0.566786 0.690849 0.138708
C17   C     C_R   0.000790 0.155434 0.052838 0.018316
C18   C     C_R   0.169564 0.973510 0.385519 -0.168479
C19   C     C_R   0.169552 0.064373 0.478817 -0.194417
C20   C     C_R   0.107210 0.060590 0.578942 0.149727
C21   C     C_R   0.071117 0.954987 0.580589 -0.166698
C22   C     C_R   0.073581 0.862542 0.486392 -0.132535
C23   C     C_R   0.756237 0.518971 0.892050 -0.174179
C24   C     C_R   0.111950 0.875598 0.390572 0.164957
C25   C     C_R   0.570850 0.653974 0.523876 -0.195734
C26   C     C_R   0.478085 0.649012 0.613220 -0.230373
C27   C     C_R   0.377117 0.600715 0.605097 -0.089845
C28   C     C_R   0.362803 0.577697 0.510921 0.484480
C29   C     C_R   0.453554 0.595981 0.425518 0.359494
C30   C     C_R   0.563545 0.613230 0.425181 -0.097364
C31   C     C_2   0.477171 0.386418 0.938319 -0.190443
C32   C     C_2   0.569937 0.434447 0.890918 -0.197537
C33   C     C_2   0.821321 0.952835 0.104282 -0.127178
C34   C     C_R   0.017226 0.699815 0.303140 -0.245659
C35   C     C_2   0.817116 0.042123 0.195888 -0.161492
C36   C     C_R   0.675440 0.421964 0.990213 -0.140716
C37   C     C_R   0.100495 0.798029 0.207791 0.529322
C38   C     C_R   0.781835 0.568118 0.314290 -0.095798
C39   C     C_R   0.897276 0.747167 0.960430 -0.115782
C40   C     C_R   0.907076 0.851328 0.039255 0.120465
H1    H     H_    0.022713 0.894646 0.118767 0.158072
H2    H     H_    0.955803 0.110212 0.804566 0.151328
H3    H     H_    0.155012 0.490556 0.643672 0.146181
H4    H     H_    0.086238 0.279329 0.148074 0.141951
H5    H     H_    0.354620 0.653195 0.821299 0.081475
H6    H     H_    0.248907 0.360050 0.084130 0.103789
H7    H     H_    0.112701 0.303677 0.620223 0.086853
H8    H     H_    0.205961 0.988026 0.314360 0.177499
H9    H     H_    0.206733 0.141849 0.473577 0.111315
H10   H     H_    0.029777 0.946299 0.655697 0.121386
H11   H     H_    0.607868 0.450970 0.197559 0.139620
H12   H     H_    0.034822 0.786165 0.492924 0.115000
H13   H     H_    0.651257 0.678374 0.530353 0.137938
H14   H     H_    0.491998 0.672645 0.684332 0.143202
H15   H     H_    0.480424 0.338411 0.979286 0.131881
H16   H     H_    0.568252 0.478882 0.846412 0.128840
H17   H     H_    0.754865 0.952104 0.079495 0.140694
H18   H     H_    0.878909 0.047578 0.227498 0.132913
H19   H     H_    0.780393 0.546683 0.829088 0.098524
H20   H     H_    0.999828 0.660058 0.356238 0.126464
H21   H     H_    0.626512 0.361307 0.019310 0.094605
H22   H     H_    0.809090 0.621142 0.377125 0.093242
H23   H     H_    0.831682 0.730055 0.931265 0.099603
H24   H     H_    0.397391 0.542689 0.888188 0.101293
N1    N     N_R   0.037310 0.720000 0.995790 -0.049378
N2    N     N_R   0.946240 0.290860 0.848040 -0.048222
N3    N     N_R   0.146140 0.501160 0.788590 -0.045402
N4    N     N_R   0.025760 0.332690 0.063610 -0.056555
N5    N     N_R   0.962690 0.280000 0.004210 -0.108632
N6    N     N_R   0.209210 0.553840 0.847990 -0.043607
N7    N     N_R   0.175110 0.482040 0.063580 -0.039627
N8    N     N_R   0.996790 0.351810 0.788620 -0.037884
N9    N     N_R   0.790790 0.446160 0.152010 -0.057745
N10   N     N_R   0.824890 0.517960 0.936420 -0.038529
N11   N     N_R   0.003210 0.648190 0.211380 -0.057961
N12   N     N_R   0.774330 0.457010 0.995840 -0.046134
N13   N     N_R   0.053760 0.709140 0.151960 -0.097621
N14   N     N_R   0.853860 0.498840 0.211410 -0.038237
N15   N     N_R   0.974240 0.667310 0.936390 -0.040274
N16   N     N_R   0.225670 0.542990 0.004160 -0.062678
Ni1   Ni    Ni4+2 0.130310 0.630310 0.999970 0.210624
Ni2   Ni    Ni4+2 0.869690 0.369690 0.000030 0.201708
Ni3   Ni    Ni4+2 0.985640 0.509470 0.863740 0.214549
Ni4   Ni    Ni4+2 0.014360 0.490530 0.136260 0.204475
O1    O     O_3   0.862331 0.102619 0.975873 -0.687740
C41   C     C_3   0.757802 0.166667 0.015315 0.160277
H25   H     H_    0.770455 0.212827 0.966276 0.120451
H26   H     H_    0.726865 0.229329 0.103317 0.103107
C42   C     C_3   0.663622 0.083688 0.004496 -0.256763
H27   H     H_    0.698449 0.010022 0.921072 0.209791
H28   H     H_    0.637371 0.049187 0.064998 0.191483
C43   C     C_3   0.555504 0.143335 0.025019 -1.064842
H29   H     H_    0.522891 0.221844 0.105084 0.265560
H30   H     H_    0.485942 0.083260 0.026107 0.276603
H31   H     H_    0.575865 0.167266 0.958344 0.269773
O2    O     O_3   0.259299 0.544376 0.504178 -0.651015
C44   C     C_3   0.275543 0.427281 0.425360 0.192125
H32   H     H_    0.298942 0.369975 0.451234 0.060891
H33   H     H_    0.345273 0.413381 0.343354 0.149352
C45   C     C_3   0.162502 0.392540 0.414549 -0.265884
H34   H     H_    0.092848 0.398406 0.493688 0.185062
H35   H     H_    0.135285 0.453011 0.394235 0.214024
C46   C     C_3   0.177344 0.269507 0.325028 -1.024706
H36   H     H_    0.243408 0.262835 0.244296 0.267511
H37   H     H_    0.093341 0.246318 0.320676 0.274092
H38   H     H_    0.204974 0.207246 0.343079 0.268748
O3    O     O_3   0.432929 0.592809 0.343185 -0.761275
H39   H     H_    0.494610 0.631704 0.304557 0.321917
O4    O     O_3   0.161788 0.878906 0.173584 -0.709816
C47   C     C_3   0.265796 0.828844 0.076354 0.134303
H40   H     H_    0.293540 0.891999 0.041744 0.148494
H41   H     H_    0.253107 0.749951 0.013119 0.102735
C48   C     C_3   0.363494 0.805992 0.098332 -0.297028
H42   H     H_    0.367430 0.882194 0.169575 0.207346
H43   H     H_    0.345891 0.730802 0.117116 0.201039
C49   C     C_3   0.482440 0.782953 0.000657 -1.027492
H44   H     H_    0.482053 0.712776 0.924534 0.254585
H45   H     H_    0.549235 0.757448 0.015772 0.274245
H46   H     H_    0.506657 0.862369 0.989032 0.268913

loop_
_geom_bond_atom_site_label_1
_geom_bond_atom_site_label_2
_ccdc_geom_bond_type
N3    Ni3   S    
N1    N15   A    
C3    C23   A    
C19   C20   A    
N10   Ni3   S    
C2    C12   A    
C44   C45   S    
C44   H32   S    
O1    C41   S    
C23   H19   S    
C26   C27   A    
N10   N12   A    
C35   H18   S    
C18   C24   A    
C28   C29   A    
C25   H13   S    
N7    Ni4   S    
C4    C24   S    
C11   C14   A    
C11   N7    A    
N11   Ni4   S    
C49   H44   S    
C18   C19   A    
N6    Ni1   S    
C2    C38   A    
C47   H40   S    
N7    N16   A    
N5    Ni2   S    
C36   N12   A    
C1    C40   A    
C9    O1    S    
C6    C15   A    
N2    N8    A    
N4    N5    A    
C1    N1    A    
N9    N14   A    
C7    H3    S    
C42   H28   S    
C14   C31   S    
C37   O4    S    
C34   N11   A    
C48   C49   S    
C16   C27   S    
C12   N9    A    
C34   H20   S    
C26   H14   S    
C43   H30   S    
C21   H10   S    
C44   H33   S    
C15   C20   S    
C4    C34   A    
C33   C40   S    
N4    Ni4   S    
N12   Ni2   S    
C39   C40   A    
C13   H7    S    
C41   H25   S    
C38   N14   A    
C25   C26   A    
C37   N13   A    
C43   H31   S    
C5    H24   S    
C48   H43   S    
C42   C43   S    
C39   N15   A    
C29   C30   A    
N2    Ni2   S    
C19   H9    S    
N1    Ni1   S    
C31   C32   D    
N13   Ni1   S    
O3    H39   S    
O2    C44   S    
C10   H5    S    
C45   H35   S    
C46   H37   S    
C20   C21   A    
C5    N16   A    
N11   N13   A    
C47   C48   S    
C5    C14   A    
C10   N6    A    
C1    H1    S    
C7    C16   A    
C8    N4    A    
C13   C15   A    
C22   C24   A    
C23   N10   A    
C36   H21   S    
N9    Ni2   S    
C27   C28   A    
C12   H11   S    
C22   H12   S    
C48   H42   S    
C9    C17   A    
C25   C30   A    
C33   H17   S    
C8    H4    S    
C9    N5    A    
N16   Ni1   S    
C41   C42   S    
C18   H8    S    
C13   N8    A    
C39   H23   S    
C8    C17   A    
C49   H46   S    
C28   O2    S    
C2    C30   S    
N3    N6    A    
C10   C16   A    
O4    C47   S    
N15   Ni3   S    
C3    C36   A    
C43   H29   S    
C33   C35   D    
C49   H45   S    
C46   H38   S    
C41   H26   S    
C45   C46   S    
C3    C32   S    
C47   H41   S    
N8    Ni3   S    
C7    N3    A    
N14   Ni4   S    
C6    N2    A    
C4    C37   A    
C6    H2    S    
C46   H36   S    
C29   O3    S    
C11   H6    S    
C45   H34   S    
C31   H15   S    
C42   H27   S    
C21   C22   A    
C32   H16   S    
C38   H22   S    
