data_str_m2_o9_o14_f0_pcu.sym.127
_audit_creation_date              2012-12-10T19:43:24-0500
_audit_creation_method            fapswitch 2.2
_symmetry_space_group_name_H-M    P1
_symmetry_Int_Tables_number       1
_space_group_crystal_system       triclinic
_cell_length_a                    10.82209
_cell_length_b                    10.869023
_cell_length_c                    9.634087
_cell_angle_alpha                 89.116053
_cell_angle_beta                  90.254214
_cell_angle_gamma                 93.687198
_cell_volume                      1130.7276761

loop_
_atom_site_label
_atom_site_type_symbol
_atom_type_description
_atom_site_fract_x
_atom_site_fract_y
_atom_site_fract_z
_atom_type_partial_charge
C1    C     C_R   0.501541 0.261885 0.502447 0.769371
C2    C     C_R   0.173302 0.572776 0.960198 -0.115495
C3    C     C_R   0.929477 0.466239 0.377632 -0.146531
C4    C     C_R   0.867259 0.462506 0.503159 -0.110850
C5    C     C_R   0.933693 0.440479 0.626121 -0.002003
C6    C     C_R   0.062911 0.451397 0.622177 -0.229062
C7    C     C_R   0.125774 0.481824 0.497758 -0.096718
C8    C     C_R   0.056841 0.484764 0.372946 -0.014874
C9    C     C_R   0.850418 0.444627 0.868970 -0.087206
C10   C     C_R   0.789856 0.383856 0.981125 -0.120580
C11   C     C_R   0.754288 0.258300 0.974568 -0.138854
C12   C     C_R   0.261601 0.496159 0.499365 0.765807
C13   C     C_R   0.778311 0.192902 0.855235 -0.129073
C14   C     C_R   0.835866 0.253431 0.741637 -0.152091
C15   C     C_R   0.872480 0.379585 0.747901 0.105444
C16   C     C_R   0.475455 0.106267 0.769648 -0.194377
C17   C     C_R   0.424515 0.040328 0.882739 -0.186822
C18   C     C_R   0.371138 0.922405 0.864703 -0.120841
C19   C     C_R   0.379032 0.865925 0.736693 -0.146756
C20   C     C_R   0.439095 0.928823 0.623547 0.083264
C21   C     C_R   0.471399 0.056364 0.634252 0.109637
C22   C     C_R   0.498074 0.126302 0.509362 -0.110086
C23   C     C_R   0.486652 0.735728 0.499534 0.848228
C24   C     C_R   0.507249 0.064701 0.383598 -0.214198
C25   C     C_R   0.495993 0.937607 0.380277 -0.158778
C26   C     C_R   0.468859 0.868337 0.500354 -0.135989
C27   C     C_R   0.606876 0.715570 0.130041 0.436545
C28   C     C_R   0.602024 0.819767 0.042799 -0.260204
C29   C     C_R   0.635618 0.806404 0.905559 -0.163008
C30   C     C_R   0.630646 0.689332 0.850999 -0.129081
C31   C     C_R   0.565079 0.593241 0.923020 0.164889
C32   C     C_R   0.560296 0.599195 0.071892 0.076890
C33   C     C_R   0.443819 0.406681 0.075162 -0.045896
C34   C     C_R   0.735162 0.484137 0.501212 0.871379
C35   C     C_R   0.441285 0.408387 0.927671 -0.068403
C36   C     C_R   0.155097 0.666817 0.053628 -0.143171
C37   C     C_R   0.124718 0.638071 0.191387 -0.046848
C38   C     C_R   0.109382 0.514532 0.235336 0.157786
C39   C     C_R   0.124896 0.420167 0.140882 -0.147060
C40   C     C_R   0.157374 0.449386 0.003856 -0.138664
Cu1   Cu    Cu3+1 0.499990 0.499990 0.640660 0.935802
Cu2   Cu    Cu3+1 0.500010 0.500010 0.359340 0.980699
H1    H     H_    0.198191 0.595822 0.853952 0.140345
H2    H     H_    0.707561 0.211883 0.061663 0.132716
H3    H     H_    0.750946 0.095679 0.850073 0.138976
H4    H     H_    0.852491 0.201953 0.648885 0.128590
H5    H     H_    0.526154 0.114602 0.286973 0.152781
H6    H     H_    0.523860 0.192250 0.794403 0.183020
H7    H     H_    0.427241 0.080709 0.984876 0.123480
H8    H     H_    0.331074 0.872108 0.952512 0.125007
H9    H     H_    0.337415 0.773282 0.727405 0.147279
H10   H     H_    0.509194 0.893187 0.283328 0.152185
H11   H     H_    0.396024 0.330733 0.130715 0.129675
H12   H     H_    0.160905 0.761808 0.018831 0.120938
H13   H     H_    0.615473 0.911830 0.083957 0.180911
H14   H     H_    0.668288 0.885380 0.843220 0.164820
H15   H     H_    0.670589 0.678486 0.750723 0.206146
H16   H     H_    0.389679 0.335025 0.874229 0.126024
H17   H     H_    0.108018 0.711568 0.262273 0.119225
H18   H     H_    0.109707 0.324418 0.172805 0.122158
H19   H     H_    0.169801 0.375762 0.932178 0.120639
H20   H     H_    0.878337 0.457986 0.281916 0.191625
H21   H     H_    0.114262 0.431114 0.714767 0.152532
H22   H     H_    0.877780 0.541989 0.875375 0.155232
H23   H     H_    0.768823 0.433603 0.072914 0.175106
N1    N     N_R   0.501190 0.501210 0.147910 -0.203153
N2    N     N_R   0.501230 0.501290 0.852040 -0.189241
O1    O     O_R   0.499990 0.319640 0.618810 -0.598766
O2    O     O_R   0.500000 0.319660 0.381240 -0.600982
O3    O     O_R   0.319640 0.500000 0.618780 -0.598344
O4    O     O_R   0.319650 0.500020 0.381210 -0.579463
O5    O     O_R   0.500000 0.680340 0.618760 -0.605141
O6    O     O_R   0.500010 0.680360 0.381190 -0.566148
O7    O     O_R   0.680350 0.499980 0.618790 -0.598060
O8    O     O_R   0.680360 0.500000 0.381220 -0.523924
S1    S     S_3+6 0.752970 0.734264 0.216744 -0.017950
O9    O     O_2   0.742141 0.730685 0.371876 -0.299567
O10   O     O_2   0.833347 0.637089 0.167823 -0.369592
O11   O     O_3   0.825625 0.871522 0.174378 -0.556284
H24   H     H_    0.910492 0.867894 0.212547 0.364984

loop_
_geom_bond_atom_site_label_1
_geom_bond_atom_site_label_2
_ccdc_geom_bond_type
C16   C21   A    
C9    H22   S    
Cu1   Cu2   S    
C19   C20   A    
S1    O11   S    
C16   H6    S    
C7    C8    A    
C14   H4    S    
C31   N2    A    
Cu2   O8    S    
C29   C30   A    
C35   H16   S    
C36   C37   A    
S1    O10   D    
C5    C6    A    
C3    H20   S    
C30   H15   S    
C1    O1    A    
C18   C19   A    
C23   C26   S    
Cu1   O7    S    
C16   C17   A    
C9    C10   A    
C34   O8    A    
C1    C22   S    
C21   C22   A    
C8    C38   S    
C23   O6    A    
C28   H13   S    
C33   N1    A    
Cu1   O1    S    
C33   H11   S    
C7    C12   S    
C4    C34   S    
C38   C39   A    
S1    O9    D    
Cu1   N2    S    
C3    C8    A    
C17   H7    S    
C39   C40   A    
C25   C26   A    
Cu2   O2    S    
C1    O2    A    
C40   H19   S    
C6    H21   S    
C37   C38   A    
C19   H9    S    
C31   C32   A    
C35   N2    A    
C2    H1    S    
C17   C18   A    
C11   H2    S    
C24   C25   A    
C37   H17   S    
C34   O7    A    
Cu1   O5    S    
C12   O4    A    
C22   C24   A    
C27   S1    S    
C18   H8    S    
C32   N1    A    
C10   H23   S    
C2    C36   A    
C12   O3    A    
C28   C29   A    
Cu2   O6    S    
C27   C32   A    
C24   H5    S    
C23   O5    A    
C4    C5    A    
C6    C7    A    
C29   H14   S    
C9    C15   A    
C25   H10   S    
C13   H3    S    
C11   C13   A    
C30   C31   A    
C20   C26   A    
C39   H18   S    
Cu2   O4    S    
C33   C35   A    
C5    C15   S    
C36   H12   S    
C10   C11   A    
O11   H24   S    
C2    C40   A    
C20   C21   A    
C27   C28   A    
Cu2   N1    S    
C14   C15   A    
C13   C14   A    
C3    C4    A    
Cu1   O3    S    
