data_str_m12_o9_o24_f0_bcu.sym.60
_audit_creation_date              2012-12-11T17:47:32-0500
_audit_creation_method            fapswitch 2.2
_symmetry_space_group_name_H-M    P1
_symmetry_Int_Tables_number       1
_space_group_crystal_system       triclinic
_cell_length_a                    14.860518
_cell_length_b                    14.897396
_cell_length_c                    14.939945
_cell_angle_alpha                 109.7867
_cell_angle_beta                  108.572355
_cell_angle_gamma                 109.211797
_cell_volume                      2572.00067038

loop_
_atom_site_label
_atom_site_type_symbol
_atom_type_description
_atom_site_fract_x
_atom_site_fract_y
_atom_site_fract_z
_atom_type_partial_charge
C1    C     C_R   0.915111 0.198154 0.002554 -0.131736
C2    C     C_R   0.018431 0.737697 0.926269 -0.122851
C3    C     C_R   0.302177 0.862238 0.300972 0.053124
C4    C     C_R   0.678551 0.217914 0.675303 0.061442
C5    C     C_R   0.327336 0.499941 0.036647 0.032943
C6    C     C_R   0.706974 0.501379 0.081037 0.090810
C7    C     C_R   0.036912 0.494449 0.322214 0.046175
C8    C     C_R   0.078112 0.499523 0.704212 0.062243
C9    C     C_R   0.963776 0.876444 0.853181 -0.169230
C10   C     C_R   0.839861 0.956327 0.920362 -0.179420
C11   C     C_R   0.193985 0.067715 0.786085 -0.134624
C12   C     C_R   0.571739 0.735053 0.931710 -0.234459
C13   C     C_R   0.094703 0.031106 0.785678 -0.102006
C14   C     C_R   0.675423 0.806912 0.956130 -0.126104
C15   C     C_R   0.706904 0.274148 0.257509 -0.077433
C16   C     C_R   0.394574 0.848563 0.872255 -0.120839
C17   C     C_R   0.817080 0.347089 0.331106 -0.105849
C18   C     C_R   0.340785 0.748399 0.776909 -0.123834
C19   C     C_R   0.894507 0.311394 0.339249 -0.014476
C20   C     C_R   0.229637 0.701279 0.706297 -0.011280
C21   C     C_R   0.859649 0.199900 0.272144 -0.013572
C22   C     C_R   0.175310 0.762451 0.723435 -0.055243
C23   C     C_R   0.298851 0.801293 0.206553 -0.143673
C24   C     C_R   0.685409 0.244408 0.776699 -0.138589
C25   C     C_R   0.747878 0.127352 0.198726 -0.125677
C26   C     C_R   0.229433 0.860949 0.821792 -0.137197
C27   C     C_R   0.672286 0.164367 0.191629 -0.128094
C28   C     C_R   0.337539 0.902281 0.896771 -0.063103
C29   C     C_R   0.042803 0.394016 0.520261 -0.172201
C30   C     C_R   0.160132 0.578778 0.516028 -0.224859
C31   C     C_R   0.106638 0.494922 0.617176 0.135271
C32   C     C_R   0.071832 0.486587 0.420229 0.071457
C33   C     C_R   0.170825 0.588589 0.615088 0.033205
C34   C     C_R   0.010136 0.393012 0.422600 -0.033375
C35   C     C_R   0.091142 0.046510 0.881806 0.023436
C36   C     C_R   0.722250 0.773396 0.892716 0.071653
C37   C     C_R   0.289955 0.134175 0.980849 -0.018106
C38   C     C_R   0.561249 0.590612 0.782607 -0.012197
C39   C     C_R   0.111725 0.021592 0.312157 -0.090721
C40   C     C_R   0.818346 0.995973 0.605204 -0.116926
C41   C     C_R   0.212422 0.026764 0.333906 -0.134864
C42   C     C_R   0.727880 0.010885 0.591596 -0.128704
C43   C     C_R   0.284375 0.051556 0.437698 0.120554
C44   C     C_R   0.686048 0.039615 0.513853 0.106393
C45   C     C_R   0.225687 0.407965 0.969204 -0.014884
C46   C     C_R   0.793478 0.591520 0.102654 -0.111507
C47   C     C_R   0.255387 0.075603 0.520371 -0.156315
C48   C     C_R   0.734517 0.051418 0.448779 -0.189104
C49   C     C_R   0.155162 0.072004 0.498589 -0.086803
C50   C     C_R   0.825363 0.037149 0.463164 -0.123262
C51   C     C_R   0.082984 0.043766 0.394336 -0.079997
C52   C     C_R   0.867292 0.009361 0.541217 -0.071949
C53   C     C_R   0.484634 0.136070 0.552679 -0.190777
C54   C     C_R   0.494566 0.970492 0.403987 -0.226329
C55   C     C_R   0.583181 0.135856 0.572686 0.064700
C56   C     C_R   0.395043 0.965508 0.387105 0.061347
C57   C     C_R   0.588379 0.052688 0.496631 0.018636
C58   C     C_R   0.388583 0.050470 0.458958 0.024023
C59   C     C_R   0.292053 0.114059 0.881096 -0.061748
C60   C     C_R   0.511479 0.628457 0.842398 -0.088998
C61   C     C_R   0.824509 0.853226 0.906435 0.057636
C62   C     C_R   0.987927 0.982041 0.877106 0.017330
C63   C     C_R   0.188649 0.101578 0.979232 -0.160113
C64   C     C_R   0.665694 0.664463 0.807972 -0.150336
C65   C     C_R   0.899496 0.822129 0.888415 0.016816
C66   C     C_R   0.927508 0.025095 0.915172 0.042729
C67   C     C_R   0.056228 0.589099 0.314376 -0.102546
C68   C     C_R   0.011777 0.409298 0.704831 -0.102589
C69   C     C_3   0.509534 0.401670 0.053305 -0.274756
C70   C     C_3   0.535949 0.602695 0.100281 -0.248353
C71   C     C_3   0.448029 0.430070 0.973092 0.020454
C72   C     C_3   0.598141 0.573804 0.179933 0.016969
C73   C     C_3   0.429824 0.499980 0.060421 0.164243
C74   C     C_3   0.614413 0.503058 0.091929 0.191642
C75   C     C_3   0.491102 0.472346 0.142260 -0.219041
C76   C     C_3   0.552837 0.531409 0.011973 -0.255535
C77   C     C_R   0.316320 0.592005 0.056676 -0.159750
C78   C     C_R   0.703229 0.410030 0.011852 -0.187360
C79   C     C_R   0.970542 0.405728 0.219341 -0.095569
C80   C     C_R   0.104126 0.589824 0.796183 -0.180573
C81   C     C_R   0.209854 0.801512 0.301725 -0.135098
C82   C     C_R   0.782005 0.255909 0.688189 -0.101407
C83   C     C_R   0.005843 0.200069 0.909923 -0.148853
C84   C     C_R   0.926286 0.742422 0.018488 -0.129075
C85   C     C_R   0.953199 0.138578 0.946657 0.075700
C86   C     C_R   0.938538 0.761713 0.936422 0.060981
H1    H     H_    0.856388 0.168064 0.027672 0.109480
H2    H     H_    0.048594 0.739823 0.870018 0.102888
H3    H     H_    0.193247 0.050693 0.709353 0.114107
H4    H     H_    0.536884 0.763965 0.981101 0.108235
H5    H     H_    0.586699 0.107704 0.134773 0.125861
H6    H     H_    0.377735 0.976951 0.973268 0.125154
H7    H     H_    0.648376 0.302906 0.252177 0.134707
H8    H     H_    0.479882 0.883816 0.928058 0.115996
H9    H     H_    0.842408 0.431933 0.382470 0.133626
H10   H     H_    0.385190 0.707196 0.757897 0.148377
H11   H     H_    0.718646 0.041789 0.146389 0.136893
H12   H     H_    0.186916 0.903895 0.842069 0.153003
H13   H     H_    0.995540 0.319604 0.517558 0.110541
H14   H     H_    0.208496 0.650103 0.514215 0.132080
H15   H     H_    0.020309 0.984667 0.709132 0.142225
H16   H     H_    0.718204 0.889488 0.023298 0.149971
H17   H     H_    0.463489 0.447822 0.195234 0.159059
H18   H     H_    0.583689 0.553850 0.960260 0.131952
H19   H     H_    0.351742 0.828853 0.174685 0.094150
H20   H     H_    0.619441 0.224659 0.795587 0.111224
H21   H     H_    0.184268 0.110505 0.052580 0.174627
H22   H     H_    0.702594 0.637560 0.760072 0.166101
H23   H     H_    0.004815 0.039051 0.377350 0.126781
H24   H     H_    0.937235 0.997690 0.551427 0.110229
H25   H     H_    0.055980 0.999879 0.231352 0.164446
H26   H     H_    0.849781 0.973558 0.665067 0.118703
H27   H     H_    0.233564 0.009883 0.269340 0.132079
H28   H     H_    0.690432 0.000127 0.641352 0.119476
H29   H     H_    0.309235 0.095018 0.600954 0.097015
H30   H     H_    0.702453 0.072587 0.387776 0.132573
H31   H     H_    0.132865 0.090100 0.562161 0.122866
H32   H     H_    0.862794 0.047316 0.413439 0.117475
H33   H     H_    0.482952 0.202296 0.610708 0.135910
H34   H     H_    0.498802 0.903829 0.349477 0.129484
H35   H     H_    0.012347 0.846990 0.826043 0.159980
H36   H     H_    0.783787 0.982618 0.935113 0.122923
H37   H     H_    0.507111 0.323498 0.038682 0.144846
H38   H     H_    0.548032 0.685819 0.118948 0.118958
H39   H     H_    0.206729 0.323417 0.937101 0.130064
H40   H     H_    0.822103 0.675981 0.158422 0.128784
H41   H     H_    0.104439 0.673068 0.379434 0.100068
H42   H     H_    0.990690 0.325223 0.657988 0.103387
H43   H     H_    0.379727 0.676548 0.103586 0.095828
H44   H     H_    0.648196 0.325740 0.983550 0.143251
H45   H     H_    0.944809 0.321161 0.194878 0.108641
H46   H     H_    0.171237 0.670824 0.836836 0.126144
H47   H     H_    0.182481 0.828461 0.359507 0.111987
H48   H     H_    0.806065 0.250891 0.626500 0.113560
H49   H     H_    0.024702 0.172160 0.845368 0.115730
H50   H     H_    0.871510 0.753464 0.048778 0.115966
N1    N     N_R   0.947560 0.293820 0.002910 -0.045988
N2    N     N_R   0.052440 0.706180 0.997090 -0.044160
N3    N     N_R   0.208960 0.706170 0.152110 -0.038530
N4    N     N_R   0.791040 0.293830 0.847890 -0.041412
N5    N     N_R   0.154330 0.443160 0.946140 -0.046112
N6    N     N_R   0.845670 0.556840 0.053860 -0.048362
N7    N     N_R   0.002190 0.556820 0.208880 -0.040246
N8    N     N_R   0.997810 0.443180 0.791120 -0.043231
N9    N     N_R   0.210550 0.556810 0.002910 -0.041037
N10   N     N_R   0.789450 0.443190 0.997090 -0.038590
N11   N     N_R   0.945970 0.443180 0.152110 -0.043603
N12   N     N_R   0.054030 0.556820 0.847890 -0.039755
N13   N     N_R   0.151530 0.706170 0.208880 -0.041927
N14   N     N_R   0.848470 0.293830 0.791120 -0.048124
N15   N     N_R   0.004980 0.293810 0.946140 -0.047688
N16   N     N_R   0.995020 0.706190 0.053860 -0.044942
Ni1   Ni    Ni4+2 0.869690 0.369690 0.000000 0.228968
Ni2   Ni    Ni4+2 0.130310 0.630310 0.000000 0.209757
Ni3   Ni    Ni4+2 0.001390 0.369680 0.869810 0.232908
Ni4   Ni    Ni4+2 0.998610 0.630320 0.130190 0.229836
C87   C     C_2   0.388839 0.183034 0.086303 0.432921
H51   H     H_    0.466597 0.196895 0.091484 0.074419
O1    O     O_2   0.384553 0.208744 0.171028 -0.585619
C88   C     C_2   0.509274 0.474295 0.698072 0.519315
H52   H     H_    0.442308 0.410796 0.692849 0.065758
O2    O     O_2   0.542614 0.447227 0.634166 -0.579703
C89   C     C_2   0.938910 0.159956 0.274098 0.393967
H53   H     H_    0.024624 0.213466 0.333193 0.063359
O3    O     O_2   0.909456 0.066714 0.208149 -0.631594
C90   C     C_2   0.061116 0.720721 0.643152 0.480068
H54   H     H_    0.012627 0.637332 0.576002 0.032445
O4    O     O_2   0.020129 0.779812 0.649550 -0.596494
C91   C     C_2   0.376247 0.349422 0.853724 0.471053
H55   H     H_    0.409777 0.310628 0.808662 -0.025941
O5    O     O_2   0.282181 0.328214 0.805946 -0.581364
C92   C     C_2   0.682275 0.654001 0.296268 0.484570
H56   H     H_    0.661271 0.701487 0.350684 0.023040
O6    O     O_2   0.774243 0.666371 0.330417 -0.578103
C93   C     C_2   0.389495 0.129833 0.866323 0.401244
H57   H     H_    0.389942 0.136149 0.796214 0.019505
O7    O     O_2   0.467138 0.129695 0.926782 -0.642802
C94   C     C_2   0.398032 0.561040 0.816260 0.443239
H58   H     H_    0.374072 0.581095 0.878651 0.054374
O8    O     O_2   0.328628 0.487322 0.724249 -0.570877

loop_
_geom_bond_atom_site_label_1
_geom_bond_atom_site_label_2
_ccdc_geom_bond_type
C16   C28   A    
C75   H17   S    
C1    H1    S    
C87   H51   S    
C80   H46   S    
C54   H34   S    
C18   H10   S    
C91   H55   S    
N6    N10   A    
C3    C23   A    
C89   H53   S    
C70   H38   S    
N8    N12   A    
C67   N7    A    
C66   C85   S    
C94   H58   S    
C65   C86   S    
C47   C49   A    
C24   N4    A    
C47   H29   S    
N10   Ni1   S    
C73   C75   S    
C10   C66   A    
N12   Ni2   S    
C21   C89   S    
C72   C92   S    
C23   N3    A    
C19   C21   A    
N13   Ni4   S    
C84   C86   A    
C13   C35   A    
C59   C93   S    
C20   C22   A    
C14   C36   A    
C71   C76   S    
C4    C24   A    
C14   H16   S    
C69   H37   S    
C60   C94   S    
C23   H19   S    
C30   H14   S    
C11   C13   A    
C2    C86   A    
C37   C87   S    
C69   C71   S    
C43   C58   S    
C39   C51   A    
C15   C27   A    
C42   H28   S    
C49   H31   S    
N16   Ni4   S    
C45   H39   S    
C49   C51   A    
C3    C81   A    
C9    H35   S    
C71   C91   S    
C2    H2    S    
C17   H9    S    
C22   C90   S    
N15   Ni3   S    
C68   H42   S    
C83   H49   S    
N5    N9    A    
N4    Ni1   S    
C48   H30   S    
N2    Ni2   S    
C39   H25   S    
C51   H23   S    
C90   O4    D    
C91   O5    D    
C42   C44   A    
C72   C75   S    
C11   C59   A    
C63   H21   S    
C26   C28   A    
C37   C63   A    
C92   O6    D    
C6    C74   S    
C83   N15   A    
C53   C55   A    
C1    C85   A    
C54   C56   A    
C46   N6    A    
C70   C72   S    
C29   H13   S    
C9    C62   A    
C2    N2    A    
C93   O7    D    
C71   C73   S    
C62   C66   A    
N5    Ni3   S    
C79   N11   A    
N3    Ni2   S    
N2    N16   A    
C40   C52   A    
C5    C45   A    
C29   C34   A    
N3    N13   A    
C88   O2    D    
C82   H48   S    
N7    N11   A    
C76   H18   S    
C15   H7    S    
C67   H41   S    
C3    C56   S    
C11   H3    S    
C50   C52   A    
C93   H57   S    
C52   H24   S    
C44   C57   S    
C79   H45   S    
C70   C73   S    
C31   C33   A    
N1    Ni1   S    
C69   C74   S    
C28   H6    S    
C16   C18   A    
C77   H43   S    
C27   H5    S    
C37   C59   A    
C74   C76   S    
C26   H12   S    
C38   C60   A    
C20   C33   S    
C84   N16   A    
C72   C74   S    
C83   C85   A    
C12   C14   A    
C8    C68   A    
N14   Ni3   S    
C55   C57   A    
C4    C55   S    
C70   C76   S    
C90   H54   S    
C10   C61   A    
C24   H20   S    
N9    Ni2   S    
C13   H15   S    
C36   C61   S    
N4    N14   A    
C1    N1    A    
C92   H56   S    
C7    C79   A    
C25   H11   S    
C15   C17   A    
C21   C25   A    
C84   H50   S    
C7    C32   S    
C6    C46   A    
C30   C33   A    
C89   O3    D    
C50   H32   S    
C8    C31   S    
C16   H8    S    
C46   H40   S    
C41   C43   A    
C41   H27   S    
C40   C42   A    
C82   N14   A    
C19   C34   S    
C12   H4    S    
C68   N8    A    
C94   O8    D    
C53   C58   A    
C53   H33   S    
C81   H47   S    
C25   C27   A    
C45   N5    A    
C88   H52   S    
N8    Ni3   S    
C78   H44   S    
C38   C88   S    
C29   C31   A    
C30   C32   A    
C40   H26   S    
N7    Ni4   S    
C77   N9    A    
C43   C47   A    
C81   N13   A    
C48   C50   A    
C17   C19   A    
C56   C58   A    
C69   C75   S    
C35   C62   S    
C18   C20   A    
C5    C73   S    
N11   Ni1   S    
C9    C65   A    
C6    C78   A    
C78   N10   A    
C7    C67   A    
C12   C60   A    
C61   C65   A    
C10   H36   S    
C80   N12   A    
C4    C82   A    
C39   C41   A    
C87   O1    D    
C22   C26   A    
C8    C80   A    
C38   C64   A    
N1    N15   A    
C35   C63   A    
N6    Ni4   S    
C36   C64   A    
C5    C77   A    
C44   C48   A    
C64   H22   S    
C32   C34   A    
C54   C57   A    
