data_str_m2_o10_o29_f0_pcu.sym.176
_audit_creation_date              2012-12-10T16:51:16-0500
_audit_creation_method            fapswitch 2.2
_symmetry_space_group_name_H-M    P1
_symmetry_Int_Tables_number       1
_space_group_crystal_system       triclinic
_cell_length_a                    27.549885
_cell_length_b                    8.769945
_cell_length_c                    7.501311
_cell_angle_alpha                 102.661517
_cell_angle_beta                  94.690516
_cell_angle_gamma                 94.521628
_cell_volume                      1753.65631632

loop_
_atom_site_label
_atom_site_type_symbol
_atom_type_description
_atom_site_fract_x
_atom_site_fract_y
_atom_site_fract_z
_atom_type_partial_charge
C1    C     C_R   0.497131 0.200207 0.453507 0.782769
C2    C     C_R   0.500174 0.799058 0.545156 0.753817
C3    C     C_R   0.096878 0.459782 0.541072 -0.054623
C4    C     C_R   0.895912 0.437947 0.627891 -0.067281
C5    C     C_R   0.117028 0.326348 0.448977 -0.106678
C6    C     C_R   0.877818 0.559170 0.751796 -0.123638
C7    C     C_R   0.085639 0.200386 0.342396 -0.211919
C8    C     C_R   0.910826 0.664036 0.882477 -0.187968
C9    C     C_R   0.126926 0.601108 0.604758 -0.079129
C10   C     C_R   0.863255 0.311188 0.530829 -0.086100
C11   C     C_R   0.353011 0.491909 0.505959 -0.359109
C12   C     C_R   0.645870 0.511933 0.498089 -0.344472
C13   C     C_R   0.964728 0.305927 0.501823 -0.001011
C14   C     C_R   0.027649 0.582298 0.674759 0.005953
C15   C     C_R   0.978745 0.564830 0.717841 -0.037913
C16   C     C_R   0.015115 0.316650 0.471193 -0.042159
C17   C     C_R   0.946573 0.437159 0.613252 -0.029386
C18   C     C_R   0.046474 0.452025 0.564804 -0.018958
C19   C     C_R   0.932510 0.164707 0.443179 0.508520
C20   C     C_R   0.056623 0.729952 0.719048 0.515104
C21   C     C_R   0.881624 0.173089 0.443928 -0.196998
C22   C     C_R   0.106549 0.735715 0.690222 -0.210974
C23   C     C_R   0.407116 0.499050 0.501724 0.849714
C24   C     C_R   0.592451 0.500648 0.498721 0.902621
C25   C     C_R   0.035033 0.206527 0.335901 0.452566
C26   C     C_R   0.961164 0.661510 0.871544 0.469114
C27   C     C_2   0.497665 0.033047 0.425054 0.157899
C28   C     C_2   0.491587 0.961506 0.564827 0.213681
C29   C     C_R   0.168078 0.328992 0.452805 0.689457
C30   C     C_R   0.826870 0.562271 0.749677 0.681257
C31   C     C_R   0.176512 0.605587 0.573635 0.695143
C32   C     C_R   0.812841 0.324622 0.532541 0.691642
C33   C     C_R   0.280828 0.537950 0.672361 0.374288
C34   C     C_R   0.719780 0.412421 0.384749 0.362350
C35   C     C_R   0.331823 0.553617 0.669452 0.277345
C36   C     C_R   0.668569 0.406176 0.369818 0.267836
C37   C     C_R   0.321719 0.417898 0.345968 0.356229
C38   C     C_R   0.674857 0.639344 0.617101 0.349564
C39   C     C_R   0.270738 0.417217 0.345527 0.338487
C40   C     C_R   0.726067 0.640381 0.633464 0.365848
C41   C     C_R   0.249782 0.473419 0.509595 0.010519
C42   C     C_R   0.747731 0.505817 0.544794 -0.014698
Cu1   Cu    Cu3+1 0.505380 0.517380 0.684380 1.152358
Cu2   Cu    Cu3+1 0.494620 0.482620 0.315620 1.144577
H1    H     H_    0.100229 0.108628 0.246081 0.231789
H2    H     H_    0.897853 0.743935 0.996236 0.225038
H3    H     H_    0.856628 0.070777 0.379462 0.211923
H4    H     H_    0.129474 0.845734 0.735488 0.204929
N1    N     N_R   0.197152 0.468785 0.511406 -0.417200
N2    N     N_R   0.796551 0.467304 0.606375 -0.427648
N3    N     N_2   0.486510 0.456430 0.038510 0.136506
N4    N     N_2   0.513490 0.543570 0.961490 0.110722
O1    O     O_R   0.503500 0.286120 0.619780 -0.535674
O2    O     O_R   0.496500 0.713880 0.380220 -0.565162
O3    O     O_R   0.494410 0.256780 0.308360 -0.556142
O4    O     O_R   0.505590 0.743220 0.691640 -0.557823
O5    O     O_R   0.434810 0.514700 0.655690 -0.524390
O6    O     O_R   0.565190 0.485300 0.344310 -0.522531
O7    O     O_R   0.425720 0.485350 0.344280 -0.529061
O8    O     O_R   0.574280 0.514650 0.655720 -0.530042
O9    O     O_2   0.188246 0.193133 0.399653 -0.477525
O10   O     O_2   0.808470 0.646975 0.896308 -0.443914
O11   O     O_2   0.780955 0.195340 0.470199 -0.446538
O12   O     O_2   0.203963 0.745201 0.606839 -0.473662
O13   O     O_3   0.340706 0.347796 0.186592 -0.468543
C43   C     C_3   0.345448 0.189296 0.189906 -0.091633
H5    H     H_    0.309850 0.125565 0.203612 0.186048
H6    H     H_    0.373355 0.179683 0.301782 0.078478
H7    H     H_    0.357891 0.129960 0.058092 0.187392
O14   O     O_3   0.653559 0.762143 0.721456 -0.501760
C44   C     C_3   0.639170 0.864337 0.609569 -0.060191
H8    H     H_    0.608976 0.807463 0.502838 0.123531
H9    H     H_    0.670425 0.908677 0.543697 0.201722
H10   H     H_    0.625325 0.967459 0.697224 0.204451
Cl1   Cl    Cl    0.435738 0.343505 0.916703 -0.412430
Cl2   Cl    Cl    0.562727 0.664631 0.086722 -0.366529
Cl3   Cl    Cl    0.233870 0.345727 0.135086 -0.440232
Cl4   Cl    Cl    0.759894 0.827266 0.707085 -0.446538
Cl5   Cl    Cl    0.633763 0.262831 0.192975 -0.428587
Cl6   Cl    Cl    0.367530 0.657924 0.873048 -0.556781
Cl7   Cl    Cl    0.747973 0.333301 0.185196 -0.414486
Cl8   Cl    Cl    0.255992 0.600284 0.883443 -0.412608
O15   O     O_3   0.951343 0.021022 0.388280 -0.542909
C45   C     C_3   0.930356 0.906231 0.472978 -0.224374
H11   H     H_    0.894602 0.851985 0.397753 0.182358
H12   H     H_    0.926490 0.954049 0.620982 0.173587
H13   H     H_    0.954843 0.810998 0.465692 0.216245
O16   O     O_3   0.035047 0.866628 0.785648 -0.533445
C46   C     C_3   0.047871 0.985880 0.693229 -0.202012
H14   H     H_    0.048107 0.939478 0.542633 0.175824
H15   H     H_    0.083651 0.051188 0.754512 0.180183
H16   H     H_    0.020216 0.071748 0.712134 0.218682
Cl9   Cl    Cl    0.001316 0.121964 0.122208 -0.498758
Cl10  Cl    Cl    0.999910 0.741598 0.075281 -0.516938
O17   O     O_3   0.508039 0.952068 0.254070 -0.533679
C47   C     C_3   0.463816 0.914434 0.137006 -0.067505
H17   H     H_    0.470834 0.835472 0.007011 0.241306
H18   H     H_    0.449904 0.020652 0.102091 0.162892
H19   H     H_    0.435018 0.851444 0.197556 0.139652
O18   O     O_3   0.470337 0.032785 0.718480 -0.545230
C48   C     C_3   0.419421 0.985915 0.685570 -0.213733
H20   H     H_    0.410925 0.856215 0.640823 0.141874
H21   H     H_    0.402065 0.043657 0.582048 0.142377
H22   H     H_    0.402404 0.022416 0.814604 0.213060

loop_
_geom_bond_atom_site_label_1
_geom_bond_atom_site_label_2
_ccdc_geom_bond_type
C26   Cl10  S    
C43   H6    S    
C38   O14   S    
C25   Cl9   S    
C48   H20   S    
C8    C26   A    
C14   C18   A    
C27   O17   S    
O17   C47   S    
C34   C42   A    
C45   H13   S    
C39   C41   A    
C29   N1    A    
C23   O7    A    
C7    H1    S    
C19   C21   A    
N3    Cl1   S    
C9    C22   A    
C43   H7    S    
Cu2   O7    S    
C47   H19   S    
C35   Cl6   S    
C3    C18   A    
C15   C17   A    
C11   C37   A    
C1    O1    A    
Cu1   O1    S    
Cu2   O6    S    
C37   O13   S    
O14   C44   S    
C34   Cl7   S    
C12   C36   A    
C33   Cl8   S    
C28   O18   S    
C40   C42   A    
C43   H5    S    
C30   N2    A    
C48   H21   S    
C31   N1    A    
C19   O15   S    
C41   N1    S    
C5    C29   A    
C10   C21   A    
C29   O9    S    
C13   C19   A    
N3    N4    D    
C14   C20   A    
C45   H11   S    
C4    C6    A    
C2    O2    A    
C5    C7    A    
C9    C31   A    
C15   C26   A    
C6    C8    A    
N4    Cl2   S    
C47   H18   S    
Cu1   Cu2   S    
C3    C9    A    
C10   C32   A    
O15   C45   S    
C24   O8    A    
C47   H17   S    
C46   H16   S    
C32   N2    A    
Cu1   O8    S    
C42   N2    S    
C4    C17   A    
Cu2   N3    S    
C24   O6    A    
C6    C30   A    
C20   C22   A    
C22   H4    S    
C48   H22   S    
C30   O10   S    
C40   Cl4   S    
C46   H15   S    
C4    C10   A    
C39   Cl3   S    
C44   H9    S    
C16   C25   A    
C23   O5    A    
C31   O12   S    
C32   O11   S    
C45   H12   S    
C3    C5    A    
C36   Cl5   S    
C44   H10   S    
C12   C24   S    
C7    C25   A    
C13   C17   A    
C33   C41   A    
C11   C35   A    
C1    O3    A    
C44   H8    S    
C37   C39   A    
C2    O4    A    
C38   C40   A    
Cu2   O3    S    
C20   O16   S    
C11   C23   S    
O18   C48   S    
C33   C35   A    
C34   C36   A    
C12   C38   A    
Cu1   N4    S    
C8    H2    S    
Cu1   O5    S    
Cu2   O2    S    
Cu1   O4    S    
O16   C46   S    
C16   C18   A    
O13   C43   S    
C13   C16   A    
C27   C28   D    
C1    C27   S    
C14   C15   A    
C2    C28   S    
C46   H14   S    
C21   H3    S    
