data_str_m4_o4_o15_f0_acs.sym.63
_audit_creation_date              2012-12-11T15:45:02-0500
_audit_creation_method            fapswitch 2.2
_symmetry_space_group_name_H-M    P1
_symmetry_Int_Tables_number       1
_space_group_crystal_system       triclinic
_cell_length_a                    19.339593
_cell_length_b                    10.997964
_cell_length_c                    18.664871
_cell_angle_alpha                 90.217493
_cell_angle_beta                  90.571122
_cell_angle_gamma                 89.901223
_cell_volume                      3969.71468667

loop_
_atom_site_label
_atom_site_type_symbol
_atom_type_description
_atom_site_fract_x
_atom_site_fract_y
_atom_site_fract_z
_atom_type_partial_charge
C1    C     C_R   0.759709 0.536889 0.647262 0.554828
C2    C     C_R   0.172398 0.109228 0.556925 -0.074543
C3    C     C_R   0.470638 0.947082 0.970342 0.048920
C4    C     C_R   0.007376 0.229251 0.958162 -0.170445
C5    C     C_R   0.008691 0.231322 0.032992 -0.172721
C6    C     C_R   0.490119 0.731286 0.966661 -0.170929
C7    C     C_R   0.491502 0.729541 0.041496 -0.171106
C8    C     C_3   0.001446 0.570912 0.036274 -0.272129
C9    C     C_3   0.998269 0.572345 0.955443 -0.270127
C10   C     C_3   0.505119 0.072108 0.044656 -0.268567
C11   C     C_3   0.501818 0.070309 0.963851 -0.275340
C12   C     C_R   0.761606 0.529029 0.853399 0.540270
C13   C     C_R   0.319124 0.549347 0.456555 -0.142122
C14   C     C_R   0.237867 0.527063 0.145898 0.542768
C15   C     C_R   0.262294 0.026696 0.854306 0.541475
C16   C     C_R   0.738427 0.029034 0.146674 0.541770
C17   C     C_R   0.772608 0.125574 0.852563 0.555978
C18   C     C_R   0.227765 0.124011 0.147982 0.553262
C19   C     C_R   0.272309 0.624594 0.852185 0.555441
C20   C     C_R   0.727437 0.625122 0.147563 0.553968
C21   C     C_R   0.971613 0.346901 0.852330 0.550313
C22   C     C_R   0.031998 0.347082 0.144982 0.546132
C23   C     C_R   0.468033 0.847180 0.854964 0.544776
C24   C     C_R   0.672399 0.609224 0.556924 -0.074549
C25   C     C_R   0.528427 0.846877 0.147614 0.551060
C26   C     C_R   0.764635 0.101888 0.417079 -0.010651
C27   C     C_R   0.239775 0.114659 0.585790 0.007561
C28   C     C_R   0.264638 0.601893 0.417077 -0.010658
C29   C     C_R   0.739777 0.614654 0.585788 0.007537
C30   C     C_R   0.732315 0.203240 0.446419 -0.041439
C31   C     C_R   0.288270 0.177797 0.545901 -0.056219
C32   C     C_R   0.232322 0.703249 0.446416 -0.041394
C33   C     C_R   0.788274 0.677787 0.545899 -0.056214
C34   C     C_R   0.744953 0.235560 0.518322 0.064733
C35   C     C_3   0.657322 0.220808 0.452028 -0.218284
C36   C     C_R   0.276043 0.202780 0.473872 0.075323
C37   C     C_R   0.244959 0.735567 0.518320 0.064673
C38   C     C_R   0.776048 0.702770 0.473871 0.075312
C39   C     C_3   0.361815 0.149479 0.533403 -0.205303
C40   C     C_3   0.157329 0.720825 0.452023 -0.218285
C41   C     C_3   0.861818 0.649468 0.533405 -0.205237
C42   C     C_3   0.670205 0.250906 0.529974 0.247175
C43   C     C_3   0.347415 0.170460 0.454302 0.236846
C44   C     C_3   0.170211 0.750916 0.529970 0.247174
C45   C     C_R   0.240674 0.535373 0.353045 0.538204
C46   C     C_3   0.847421 0.670451 0.454303 0.236815
C47   C     C_R   0.789507 0.165653 0.561253 -0.032746
C48   C     C_R   0.215128 0.167926 0.439527 -0.030949
C49   C     C_R   0.289508 0.665653 0.561253 -0.032795
C50   C     C_R   0.715131 0.667919 0.439526 -0.030924
C51   C     C_R   0.998522 0.343934 0.426057 -0.034567
C52   C     C_R   0.006598 0.331775 0.577219 -0.034705
C53   C     C_R   0.498506 0.843933 0.426047 -0.034221
C54   C     C_R   0.506584 0.831779 0.577208 -0.035042
C55   C     C_R   0.976811 0.125007 0.420913 -0.099296
C56   C     C_R   0.259708 0.036891 0.647263 0.555258
C57   C     C_R   0.000634 0.107530 0.567900 -0.108447
C58   C     C_R   0.476803 0.625007 0.420902 -0.099212
C59   C     C_R   0.500628 0.607532 0.567888 -0.108531
C60   C     C_R   0.981576 0.012012 0.452797 -0.132037
C61   C     C_R   0.994332 0.002911 0.526035 -0.114823
C62   C     C_R   0.481574 0.512013 0.452784 -0.132007
C63   C     C_R   0.494330 0.502913 0.526022 -0.114825
C64   C     C_R   0.998399 0.223770 0.536174 0.002529
C65   C     C_R   0.990667 0.231358 0.460617 -0.000705
C66   C     C_R   0.498387 0.723772 0.536164 0.002349
C67   C     C_R   0.740673 0.035368 0.353047 0.537953
C68   C     C_R   0.490654 0.731358 0.460607 -0.000564
C69   C     C_R   0.020397 0.440830 0.541686 0.009360
C70   C     C_R   0.003893 0.450997 0.468584 -0.001376
C71   C     C_R   0.520375 0.940836 0.541673 0.009239
C72   C     C_R   0.503870 0.950997 0.468571 -0.001229
C73   C     C_R   0.793047 0.174917 0.639731 0.569755
C74   C     C_R   0.207897 0.173748 0.360829 0.559050
C75   C     C_R   0.293048 0.674916 0.639731 0.569608
C76   C     C_R   0.707898 0.673747 0.360830 0.559226
C77   C     C_R   0.041416 0.544889 0.580218 -0.099425
C78   C     C_R   0.830438 0.078725 0.527410 -0.145520
C79   C     C_R   0.994596 0.569124 0.440494 -0.082461
C80   C     C_R   0.541396 0.044898 0.580200 -0.099514
C81   C     C_R   0.494576 0.069121 0.440476 -0.082333
C82   C     C_R   0.028184 0.659113 0.553175 -0.154560
C83   C     C_R   0.007311 0.671264 0.482534 -0.115720
C84   C     C_R   0.528172 0.159120 0.553151 -0.154637
C85   C     C_R   0.507299 0.171265 0.482510 -0.115694
C86   C     C_R   0.744895 0.058361 0.071356 0.021775
C87   C     C_R   0.257614 0.051414 0.930592 0.021363
C88   C     C_R   0.242915 0.552663 0.069835 0.020905
C89   C     C_R   0.160773 0.130700 0.483353 -0.123384
C90   C     C_R   0.755266 0.558045 0.928854 0.022851
C91   C     C_R   0.789734 0.986127 0.031268 0.044193
C92   C     C_R   0.211364 0.981450 0.969841 0.042781
C93   C     C_R   0.287679 0.480332 0.029687 0.042427
C94   C     C_R   0.709448 0.487376 0.968218 0.045075
C95   C     C_R   0.792824 0.995121 0.958027 0.019897
C96   C     C_R   0.207983 0.989913 0.043114 0.021118
C97   C     C_R   0.290878 0.489469 0.956431 0.020998
C98   C     C_R   0.706263 0.495783 0.041465 0.020264
C99   C     C_R   0.698737 0.139241 0.960042 -0.162526
C100  C     C_R   0.330437 0.578720 0.527410 -0.145537
C101  C     C_R   0.305694 0.125368 0.043192 -0.151126
C102  C     C_R   0.195998 0.631530 0.958184 -0.151597
C103  C     C_R   0.802354 0.635229 0.040911 -0.161532
C104  C     C_R   0.696208 0.130282 0.034810 -0.165778
C105  C     C_R   0.308852 0.116196 0.968342 -0.151774
C106  C     C_R   0.193038 0.621723 0.032970 -0.151873
C107  C     C_R   0.804882 0.627095 0.966096 -0.164402
C108  C     C_3   0.866093 0.972175 0.039774 -0.270022
C109  C     C_3   0.135061 0.968927 0.960694 -0.270843
C110  C     C_3   0.363783 0.462949 0.038143 -0.269100
C111  C     C_R   0.660774 0.630699 0.483352 -0.123315
C112  C     C_3   0.632986 0.476669 0.959274 -0.271925
C113  C     C_3   0.869837 0.979863 0.959263 -0.269790
C114  C     C_3   0.130959 0.975019 0.041358 -0.269701
C115  C     C_3   0.367563 0.469647 0.957479 -0.270006
C116  C     C_3   0.629057 0.484044 0.039810 -0.269717
C117  C     C_R   0.751144 0.079056 0.921647 0.014818
C118  C     C_R   0.250359 0.072271 0.080218 0.016034
C119  C     C_R   0.249769 0.574578 0.920191 0.015551
C120  C     C_R   0.748893 0.577525 0.078569 0.015728
C121  C     C_R   0.972790 0.344275 0.647964 0.525572
C122  C     C_R   0.819123 0.049347 0.456556 -0.142089
C123  C     C_R   0.028028 0.347119 0.352882 0.525169
C124  C     C_R   0.472787 0.844275 0.647961 0.526615
C125  C     C_R   0.528023 0.847119 0.352878 0.524173
C126  C     C_R   0.016258 0.342254 0.069357 0.022355
C127  C     C_R   0.008285 0.339099 0.919968 0.017811
C128  C     C_R   0.491869 0.839637 0.079858 0.018341
C129  C     C_R   0.484003 0.842384 0.930491 0.022375
C130  C     C_R   0.030929 0.446116 0.029637 0.049950
C131  C     C_R   0.027392 0.445532 0.956398 0.027094
C132  C     C_R   0.474144 0.946732 0.043563 0.028715
Cr1   Cr    Cr6+3 0.885860 0.491680 0.749630 0.999963
Cr2   Cr    Cr6+3 0.112430 0.179310 0.249850 1.000168
Cr3   Cr    Cr6+3 0.387570 0.679310 0.750150 0.994181
Cr4   Cr    Cr6+3 0.612430 0.679310 0.249850 0.999446
Cr5   Cr    Cr6+3 0.114140 0.491680 0.250370 1.006727
Cr6   Cr    Cr6+3 0.385860 0.991680 0.749630 1.003462
Cr7   Cr    Cr6+3 0.614140 0.991680 0.250370 1.002953
Cr8   Cr    Cr6+3 0.730490 0.332970 0.748720 1.025437
Cr9   Cr    Cr6+3 0.269510 0.332970 0.251280 1.047263
Cr10  Cr    Cr6+3 0.230490 0.832970 0.748720 1.025217
Cr11  Cr    Cr6+3 0.769510 0.832970 0.251280 1.047447
Cr12  Cr    Cr6+3 0.887570 0.179310 0.750150 0.993487
F1    F     F_    0.651950 0.367932 0.546242 -0.664572
F2    F     F_    0.381188 0.269242 0.426262 -0.694963
F3    F     F_    0.151957 0.867941 0.546240 -0.664602
F4    F     F_    0.881196 0.769234 0.426267 -0.694954
H1    H     H_    0.865703 0.021866 0.557304 0.170951
H2    H     H_    0.342450 0.182442 0.071097 0.123229
H3    H     H_    0.160510 0.691982 0.931161 0.123950
H4    H     H_    0.838116 0.694842 0.068398 0.126533
H5    H     H_    0.658497 0.182997 0.064005 0.116986
H6    H     H_    0.348913 0.163755 0.940006 0.120550
H7    H     H_    0.154343 0.672167 0.062008 0.119547
H8    H     H_    0.843297 0.678365 0.937429 0.115803
H9    H     H_    0.881847 0.882349 0.061034 0.134642
H10   H     H_    0.119012 0.879956 0.938251 0.131315
H11   H     H_    0.378223 0.372773 0.059706 0.132472
H12   H     H_    0.111706 0.108173 0.459553 0.172694
H13   H     H_    0.616298 0.387582 0.937341 0.133940
H14   H     H_    0.890019 0.051109 0.067820 0.135300
H15   H     H_    0.111795 0.048868 0.933384 0.139594
H16   H     H_    0.388780 0.541015 0.065939 0.139450
H17   H     H_    0.610103 0.556771 0.931668 0.134702
H18   H     H_    0.897053 0.062367 0.941547 0.165475
H19   H     H_    0.103338 0.056691 0.060114 0.169944
H20   H     H_    0.396754 0.549570 0.939230 0.168081
H21   H     H_    0.602891 0.567760 0.057973 0.166425
H22   H     H_    0.886686 0.893687 0.933462 0.127164
H23   H     H_    0.365699 0.521856 0.557304 0.170955
H24   H     H_    0.114169 0.888258 0.065996 0.124440
H25   H     H_    0.382491 0.382096 0.932019 0.124334
H26   H     H_    0.610994 0.398498 0.064954 0.127916
H27   H     H_    0.998908 0.143933 0.930734 0.118108
H28   H     H_    0.001628 0.147756 0.062264 0.113931
H29   H     H_    0.496124 0.647245 0.937208 0.114354
H30   H     H_    0.499073 0.644081 0.068757 0.117291
H31   H     H_    0.038530 0.637492 0.059235 0.135280
H32   H     H_    0.944478 0.577515 0.935165 0.167677
H33   H     H_    0.559030 0.074605 0.064820 0.169187
H34   H     H_    0.611706 0.608180 0.459553 0.172726
H35   H     H_    0.465646 0.138600 0.941113 0.133490
H36   H     H_    0.949715 0.571059 0.061676 0.137209
H37   H     H_    0.034363 0.638838 0.931362 0.123167
H38   H     H_    0.470073 0.140658 0.068930 0.123895
H39   H     H_    0.553504 0.067714 0.938370 0.137183
H40   H     H_    0.847833 0.973357 0.436233 0.229906
H41   H     H_    0.131471 0.071580 0.588585 0.187027
H42   H     H_    0.347833 0.473357 0.436231 0.229904
H43   H     H_    0.631471 0.571580 0.588583 0.187027
H44   H     H_    0.130331 0.633319 0.443230 0.133914
H45   H     H_    0.037816 0.737911 0.586441 0.141370
H46   H     H_    0.875661 0.553646 0.545864 0.135327
H47   H     H_    0.630326 0.133299 0.443238 0.134048
H48   H     H_    0.375658 0.053658 0.545862 0.135153
H49   H     H_    0.638574 0.298747 0.419352 0.172778
H50   H     H_    0.394502 0.220302 0.559263 0.162971
H51   H     H_    0.138585 0.798767 0.419348 0.172790
H52   H     H_    0.894506 0.720289 0.559266 0.162979
H53   H     H_    0.653192 0.183121 0.569440 0.131535
H54   H     H_    0.350359 0.087063 0.420553 0.123803
H55   H     H_    0.153199 0.683129 0.569434 0.131567
H56   H     H_    0.002475 0.759740 0.459726 0.172365
H57   H     H_    0.850368 0.587054 0.420554 0.123798
H58   H     H_    0.973066 0.932947 0.419828 0.166850
H59   H     H_    0.996254 0.915362 0.551308 0.132948
H60   H     H_    0.473067 0.432948 0.419815 0.166814
H61   H     H_    0.496256 0.415364 0.551295 0.132971
H62   H     H_    0.962303 0.128111 0.364817 0.138687
H63   H     H_    0.011868 0.095500 0.624259 0.133113
H64   H     H_    0.462295 0.628111 0.364805 0.138511
H65   H     H_    0.511863 0.595502 0.624247 0.133213
H66   H     H_    0.973766 0.584879 0.387394 0.172824
H67   H     H_    0.537808 0.237920 0.586413 0.141393
H68   H     H_    0.062771 0.538172 0.633979 0.135128
H69   H     H_    0.473745 0.084870 0.387375 0.172856
H70   H     H_    0.562755 0.038187 0.633958 0.135100
H71   H     H_    0.502469 0.259737 0.459697 0.172362
H72   H     H_    0.663831 0.201139 0.933246 0.127983
O1    O     O_R   0.957020 0.451640 0.669920 -0.519088
O2    O     O_R   0.168040 0.093290 0.169870 -0.521998
O3    O     O_R   0.331960 0.593290 0.830130 -0.521126
O4    O     O_R   0.668040 0.593290 0.169870 -0.521334
O5    O     O_R   0.945600 0.250580 0.824860 -0.511455
O6    O     O_R   0.054400 0.250580 0.175140 -0.510105
O7    O     O_R   0.445600 0.750580 0.824860 -0.510851
O8    O     O_R   0.554400 0.750580 0.175140 -0.510776
O9    O     O_3   0.834640 0.334650 0.749500 -0.271786
O10   O     O_3   0.165360 0.334650 0.250500 -0.276614
O11   O     O_3   0.334640 0.834650 0.749500 -0.273705
O12   O     O_R   0.042980 0.451640 0.330080 -0.528702
O13   O     O_3   0.665360 0.834650 0.250500 -0.274815
O14   O     O_R   0.821450 0.543440 0.674610 -0.510515
O15   O     O_R   0.178550 0.543440 0.325390 -0.505175
O16   O     O_R   0.321450 0.043440 0.674610 -0.510607
O17   O     O_R   0.678550 0.043440 0.325390 -0.504916
O18   O     O_R   0.715320 0.458650 0.668100 -0.471697
O19   O     O_R   0.284680 0.458650 0.331900 -0.500879
O20   O     O_R   0.215320 0.958650 0.668100 -0.471453
O21   O     O_R   0.784680 0.958650 0.331900 -0.501067
O22   O     O_R   0.737170 0.209590 0.674530 -0.495157
O23   O     O_R   0.457020 0.951640 0.669920 -0.518917
O24   O     O_R   0.262830 0.209590 0.325470 -0.461934
O25   O     O_R   0.237170 0.709590 0.674530 -0.495198
O26   O     O_R   0.762830 0.709590 0.325470 -0.461830
O27   O     O_R   0.832710 0.092740 0.669580 -0.527488
O28   O     O_R   0.167290 0.092740 0.330420 -0.517176
O29   O     O_R   0.332710 0.592740 0.669580 -0.527543
O30   O     O_R   0.667290 0.592740 0.330420 -0.517070
O31   O     O_R   0.946290 0.250060 0.676040 -0.524995
O32   O     O_R   0.053710 0.250060 0.323960 -0.521725
O33   O     O_R   0.446290 0.750060 0.676040 -0.524101
O34   O     O_R   0.542980 0.951640 0.330080 -0.528863
O35   O     O_R   0.553710 0.750060 0.323960 -0.522585
O36   O     O_R   0.956270 0.452200 0.830470 -0.525378
O37   O     O_R   0.043730 0.452200 0.169530 -0.516946
O38   O     O_R   0.456270 0.952200 0.830470 -0.518994
O39   O     O_R   0.543730 0.952200 0.169530 -0.523667
O40   O     O_R   0.820760 0.543950 0.823440 -0.508923
O41   O     O_R   0.179240 0.543950 0.176560 -0.506122
O42   O     O_R   0.320760 0.043950 0.823440 -0.506596
O43   O     O_R   0.679240 0.043950 0.176560 -0.509147
O44   O     O_R   0.714570 0.459210 0.828640 -0.523823
O45   O     O_R   0.736470 0.210100 0.823360 -0.505324
O46   O     O_R   0.285430 0.459210 0.171360 -0.520104
O47   O     O_R   0.214570 0.959210 0.828640 -0.524410
O48   O     O_R   0.785430 0.959210 0.171360 -0.519478
O49   O     O_R   0.263530 0.210100 0.176640 -0.503281
O50   O     O_R   0.236470 0.710100 0.823360 -0.505428
O51   O     O_R   0.763530 0.710100 0.176640 -0.503434
O52   O     O_R   0.831960 0.093290 0.830130 -0.520689

loop_
_geom_bond_atom_site_label_1
_geom_bond_atom_site_label_2
_ccdc_geom_bond_type
C58   C62   A    
C46   H57   S    
C66   C68   A    
Cr6   O38   S    
C20   C120  S    
Cr7   O43   S    
Cr7   O17   S    
C51   C123  S    
C6    C7    A    
Cr4   O35   S    
C69   C77   A    
C103  C120  A    
C34   C42   S    
C2    H41   S    
Cr2   O32   S    
C40   H44   S    
C80   C84   A    
C86   C104  A    
C57   H63   S    
C67   O21   A    
C41   H52   S    
C114  H19   S    
C102  C119  A    
C95   C117  A    
Cr10  O20   S    
C112  H13   S    
C76   O30   A    
C62   C63   A    
Cr3   O7    S    
C30   C35   S    
C57   C64   A    
C11   H39   S    
C101  C118  A    
Cr2   O6    S    
C96   C118  A    
Cr6   O11   S    
Cr12  O52   S    
C25   C128  S    
C63   H61   S    
C90   C107  A    
C15   O47   A    
C86   C91   A    
C6    C129  A    
C59   C66   A    
C80   H70   S    
C92   C109  S    
C121  O31   A    
C94   C98   A    
C9    H37   S    
Cr10  O11   S    
C29   C33   A    
C101  H2    S    
C92   C96   A    
C44   F3    S    
C88   C106  A    
C23   C129  S    
Cr11  O48   S    
C51   C65   A    
Cr2   O28   S    
C125  O35   A    
C53   C68   A    
C24   C29   A    
C82   H45   S    
C17   O45   A    
C52   C69   A    
C16   O43   A    
Cr6   O16   S    
C84   C85   A    
Cr8   O45   S    
C79   H66   S    
C46   F4    S    
C73   O22   A    
Cr6   O42   S    
C23   O38   A    
Cr5   O15   S    
C8    C9    S    
Cr2   O2    S    
C4    H27   S    
Cr7   O39   S    
C5    C126  A    
Cr7   O13   S    
C44   H55   S    
Cr1   O1    S    
C41   C46   S    
C49   C75   S    
C13   C28   A    
C102  C106  A    
C2    C27   A    
C51   C70   A    
Cr9   O49   S    
C7    C128  A    
C21   C127  S    
C18   C118  S    
C72   C81   A    
C75   O25   A    
C84   H67   S    
C35   H47   S    
C93   C110  S    
C17   O52   A    
C74   O24   A    
C8    H36   S    
C9    C131  S    
C105  H6    S    
Cr4   O8    S    
C19   C119  S    
Cr8   O9    S    
Cr9   O19   S    
Cr3   O11   S    
C55   C60   A    
C100  H23   S    
C16   C86   S    
Cr4   O30   S    
C69   C70   A    
C24   C111  A    
Cr3   O29   S    
Cr5   O12   S    
C18   O2    A    
C109  H10   S    
C128  C132  A    
Cr1   O36   S    
C62   H60   S    
C71   C80   A    
C55   C65   A    
C56   O20   A    
C81   C85   A    
C90   C94   A    
C19   O50   A    
C10   C132  S    
Cr1   O40   S    
C22   O37   A    
C101  C105  A    
C28   C45   S    
C110  C115  S    
Cr9   O24   S    
C38   C46   S    
C38   C50   A    
C30   C34   A    
C27   C31   A    
C3    C132  A    
C48   C74   S    
Cr12  O9    S    
C28   C32   A    
Cr7   O34   S    
C11   H35   S    
Cr10  O47   S    
C47   C73   S    
C35   C42   S    
C109  H15   S    
C113  H18   S    
Cr11  O26   S    
C110  H16   S    
C27   C56   S    
C83   H56   S    
C98   C116  S    
C39   C43   S    
C108  H9    S    
C95   C113  S    
C121  O1    A    
Cr9   O10   S    
C108  H14   S    
C67   O17   A    
C111  H34   S    
C13   H42   S    
C7    H30   S    
C60   C61   A    
C108  C113  S    
C97   C119  A    
C2    C89   A    
C114  H24   S    
C45   O19   A    
C41   H46   S    
C14   O41   A    
C50   C76   S    
C99   C117  A    
C74   O28   A    
C52   C121  S    
C122  H40   S    
Cr4   O4    S    
C1    O14   A    
Cr5   O10   S    
Cr10  O25   S    
C81   H69   S    
Cr4   O13   S    
C43   H54   S    
Cr8   O18   S    
C20   O4    A    
C19   O3    A    
C32   C37   A    
Cr3   O33   S    
C124  O23   A    
C98   C120  A    
C4    C5    A    
C55   H62   S    
C20   O51   A    
C37   C49   A    
C16   O48   A    
C9    H32   S    
C53   C125  S    
C109  C114  S    
C61   H59   S    
C54   C66   A    
C103  H4    S    
C58   C68   A    
Cr12  O31   S    
C106  H7    S    
C58   H64   S    
C48   C89   A    
C6    H29   S    
C52   C64   A    
C104  H5    S    
C5    H28   S    
Cr11  O51   S    
Cr12  O5    S    
C79   C83   A    
C97   C115  S    
C26   C67   S    
C93   C97   A    
C112  C116  S    
C32   C40   S    
C21   O5    A    
C17   C117  S    
C35   H49   S    
C89   H12   S    
C15   C87   S    
C12   C90   S    
C54   C124  S    
C88   C93   A    
C123  O12   A    
C99   C104  A    
C4    C127  A    
C70   C79   A    
C3    C129  A    
C91   C108  S    
C39   H50   S    
C76   O26   A    
C45   O15   A    
C87   C105  A    
C124  O33   A    
C42   H53   S    
Cr1   O9    S    
C23   O7    A    
C59   H65   S    
C57   C61   A    
C113  H22   S    
C22   O6    A    
C40   H51   S    
Cr5   O37   S    
C1    O18   A    
C3    C11   S    
Cr3   O3    S    
C39   H48   S    
C102  H3    S    
C25   O8    A    
C59   C63   A    
C33   C38   A    
Cr11  O21   S    
C116  H26   S    
C33   C41   S    
Cr9   O46   S    
Cr11  O13   S    
C13   C100  A    
C130  C131  A    
C85   H71   S    
C14   C88   S    
C123  O32   A    
C115  H25   S    
C43   F2    S    
C75   O29   A    
C64   C65   A    
C49   C100  A    
C8    C130  S    
C42   F1    S    
C8    H31   S    
C60   H58   S    
C1    C29   S    
C77   C82   A    
C37   C44   S    
C112  H17   S    
C54   C71   A    
C94   C112  S    
C50   C111  A    
C10   H38   S    
C31   C39   S    
C116  H21   S    
C36   C48   A    
C24   H43   S    
Cr8   O22   S    
Cr1   O14   S    
Cr2   O10   S    
C125  O34   A    
C78   C122  A    
C127  C131  A    
C96   C114  S    
C22   C126  S    
C10   C11   S    
C110  H11   S    
C107  H8    S    
C91   C95   A    
C25   O39   A    
C12   O40   A    
C40   C44   S    
C71   C72   A    
C99   H72   S    
C78   H1    S    
C82   C83   A    
Cr8   O44   S    
Cr12  O27   S    
Cr10  O50   S    
C15   O42   A    
C10   H33   S    
C126  C130  A    
C31   C36   A    
C56   O16   A    
C36   C43   S    
C103  C107  A    
C34   C47   A    
C26   C122  A    
C47   C78   A    
C115  H20   S    
C87   C92   A    
C53   C72   A    
C73   O27   A    
C18   O49   A    
C12   O44   A    
Cr6   O23   S    
C14   O46   A    
C77   H68   S    
C21   O36   A    
C26   C30   A    
Cr5   O41   S    
