data_str_m3_o14_o16_f0_pcu.sym.189
_audit_creation_date              2012-12-10T17:42:39-0500
_audit_creation_method            fapswitch 2.2
_symmetry_space_group_name_H-M    P1
_symmetry_Int_Tables_number       1
_space_group_crystal_system       triclinic
_cell_length_a                    9.977659
_cell_length_b                    10.765587
_cell_length_c                    13.010264
_cell_angle_alpha                 91.872412
_cell_angle_beta                  70.22727
_cell_angle_gamma                 89.2728
_cell_volume                      1313.98691911

loop_
_atom_site_label
_atom_site_type_symbol
_atom_type_description
_atom_site_fract_x
_atom_site_fract_y
_atom_site_fract_z
_atom_type_partial_charge
C1    C     C_R   0.500396 0.739868 0.495651 0.962277
C2    C     C_R   0.443350 0.428842 0.976173 0.174862
C3    C     C_R   0.478051 0.403911 0.863713 0.142308
C4    C     C_R   0.553015 0.427116 0.021177 0.021068
C5    C     C_R   0.680551 0.359193 0.966184 0.168294
C6    C     C_R   0.705860 0.313418 0.858940 -0.155374
C7    C     C_R   0.608445 0.341125 0.806042 -0.183015
C8    C     C_R   0.541594 0.496307 0.116689 0.362261
C9    C     C_R   0.750139 0.387495 0.126917 -0.250601
C10   C     C_R   0.377496 0.439214 0.814836 -0.147565
C11   C     C_R   0.374683 0.873719 0.352760 -0.156433
C12   C     C_R   0.423118 0.477968 0.700775 0.985491
C13   C     C_R   0.329986 0.935864 0.277720 -0.141640
C14   C     C_R   0.353250 0.061740 0.263953 0.467988
C15   C     C_R   0.417292 0.126800 0.328976 -0.277072
C16   C     C_R   0.457675 0.065149 0.409115 0.044231
C17   C     C_R   0.444504 0.935548 0.416345 0.044855
C18   C     C_R   0.499485 0.873383 0.488702 -0.111629
C19   C     C_R   0.557373 0.940122 0.556156 -0.159306
C20   C     C_R   0.562214 0.066846 0.554154 -0.215907
C21   C     C_R   0.510550 0.129084 0.482996 -0.038510
C22   C     C_R   0.821650 0.710463 0.586625 0.357088
C23   C     C_R   0.503551 0.260990 0.493967 0.804609
C24   C     C_R   0.892305 0.822543 0.561683 -0.267231
C25   C     C_R   0.031790 0.828310 0.563257 0.023424
C26   C     C_R   0.094375 0.715952 0.581760 0.377181
C27   C     C_R   0.052152 0.604345 0.540313 0.053730
C28   C     C_R   0.907210 0.602315 0.543178 -0.034180
C29   C     C_R   0.947926 0.401476 0.460046 -0.094969
C30   C     C_R   0.090257 0.401416 0.460526 -0.029378
C31   C     C_R   0.579786 0.495233 0.294923 0.910048
C32   C     C_R   0.779644 0.340219 0.019643 -0.167418
C33   C     C_R   0.629580 0.465267 0.176486 -0.146352
C34   C     C_R   0.233493 0.445861 0.880158 -0.138005
C35   C     C_R   0.193985 0.449197 0.993358 -0.119969
C36   C     C_R   0.299074 0.448150 0.041218 -0.027230
H1    H     H_    0.820492 0.362775 0.171134 0.191338
H2    H     H_    0.353465 0.776958 0.359000 0.244779
H3    H     H_    0.276555 0.885421 0.230401 0.203132
H4    H     H_    0.435082 0.224835 0.316040 0.174176
H5    H     H_    0.602445 0.116766 0.610944 0.154033
H6    H     H_    0.910993 0.320916 0.426553 0.165426
H7    H     H_    0.830227 0.908219 0.575802 0.183549
H8    H     H_    0.803467 0.261995 0.814451 0.148207
H9    H     H_    0.159235 0.321309 0.427265 0.165768
H10   H     H_    0.876214 0.285092 0.980479 0.167931
H11   H     H_    0.152115 0.446106 0.844131 0.206497
H12   H     H_    0.266733 0.454644 0.129087 0.198469
H13   H     H_    0.082623 0.456416 0.043714 0.156674
H14   H     H_    0.633371 0.309667 0.721669 0.144881
H15   H     H_    0.593982 0.894977 0.614193 0.206127
N1    N     N_R   0.856860 0.501200 0.500990 -0.125521
N2    N     N_R   0.142450 0.501280 0.501020 -0.097423
O1    O     O_R   0.385310 0.683220 0.500000 -0.627413
O2    O     O_R   0.614640 0.683250 0.500010 -0.607421
O3    O     O_R   0.328400 0.499950 0.653610 -0.534968
O4    O     O_R   0.557730 0.499970 0.653620 -0.580078
O5    O     O_R   0.385360 0.316750 0.499990 -0.649913
O6    O     O_R   0.614690 0.316780 0.500000 -0.650407
O7    O     O_R   0.442270 0.500030 0.346380 -0.573318
O8    O     O_R   0.671600 0.500050 0.346390 -0.616104
Zn1   Zn    Zn3+2 0.346880 0.499980 0.499990 1.027035
Zn2   Zn    Zn3+2 0.653120 0.500020 0.500010 0.981223
S1    S     S_3+6 0.297601 0.137871 0.167634 0.000678
O9    O     O_2   0.213344 0.253181 0.220834 -0.352493
O10   O     O_2   0.426728 0.172922 0.074663 -0.316478
O11   O     O_3   0.195197 0.046099 0.119398 -0.519831
H16   H     H_    0.263007 0.990756 0.062554 0.390591
S2    S     S_3+6 0.701039 0.715177 0.724920 0.096968
O12   O     O_2   0.726344 0.830124 0.783913 -0.211814
O13   O     O_2   0.548622 0.721777 0.730162 -0.255213
O14   O     O_3   0.724843 0.592562 0.793921 -0.493087
H17   H     H_    0.787648 0.532848 0.738908 0.344216
C37   C     C_3   0.084893 0.953727 0.587076 -0.287876
C38   C     C_3   0.067502 0.054211 0.511865 -0.898228
H18   H     H_    0.088070 0.016074 0.427754 0.283913
H19   H     H_    0.957641 0.094955 0.542821 0.250052
H20   H     H_    0.142516 0.129684 0.510468 0.258021
H21   H     H_    0.024344 0.986391 0.672172 0.260144
H22   H     H_    0.198155 0.944733 0.580556 0.218965
S3    S     S_3+6 0.100053 0.710885 0.716476 0.057896
O15   O     O_2   0.247935 0.728381 0.718815 -0.250218
O16   O     O_2   0.005343 0.810963 0.789768 -0.263492
O17   O     O_3   0.036845 0.573276 0.765071 -0.604297
H23   H     H_    0.972242 0.591448 0.840950 0.396622
S4    S     S_3+6 0.460543 0.646319 0.137671 0.001911
O18   O     O_2   0.553676 0.732937 0.174368 -0.293401
O19   O     O_2   0.448511 0.692524 0.033125 -0.239329
O20   O     O_3   0.297279 0.641136 0.233145 -0.630293
H24   H     H_    0.229961 0.671119 0.197746 0.361461

loop_
_geom_bond_atom_site_label_1
_geom_bond_atom_site_label_2
_ccdc_geom_bond_type
O5    Zn1   S    
C23   O5    A    
C16   C21   A    
C29   H6    S    
S2    O14   S    
C11   C13   A    
C31   O8    A    
C30   H9    S    
C35   C36   A    
C4    C8    A    
C20   H5    S    
C23   O6    A    
C26   C27   A    
C25   C37   S    
C3    C7    A    
C5    C6    A    
S4    O19   D    
C15   C16   A    
O7    Zn1   S    
C34   C35   A    
S2    O13   D    
C9    C32   A    
C19   C20   A    
C16   C17   A    
O2    Zn2   S    
C35   H13   S    
C31   C33   S    
O4    Zn2   S    
C22   S2    S    
C8    S4    S    
C5    C32   A    
C22   C28   A    
C13   C14   A    
C9    C33   A    
S3    O16   D    
S3    O15   D    
C30   N2    A    
C37   C38   S    
O11   H16   S    
S1    O11   S    
O17   H23   S    
S4    O18   D    
C18   C19   A    
O1    Zn1   S    
C25   C26   A    
S4    O20   S    
S1    O10   D    
C31   O7    A    
C11   H2    S    
C2    C4    A    
C38   H18   S    
C29   C30   A    
N2    Zn1   S    
C14   S1    S    
C9    H1    S    
C17   C18   A    
C1    C18   S    
C10   C34   A    
C24   C25   A    
C38   H19   S    
C12   O3    A    
C10   C12   S    
C1    O1    A    
C12   O4    A    
C26   S3    S    
C37   H21   S    
C21   C23   S    
C22   C24   A    
S3    O17   S    
C6    H8    S    
C2    C36   A    
C11   C17   A    
C32   H10   S    
O8    Zn2   S    
C7    H14   S    
O14   H17   S    
N1    Zn2   S    
C27   N2    A    
C6    C7    A    
O6    Zn2   S    
S1    O9    D    
C2    C3    A    
C1    O2    A    
C3    C10   A    
C28   N1    A    
C36   H12   S    
O3    Zn1   S    
C8    C33   A    
S2    O12   D    
C38   H20   S    
C15   H4    S    
C13   H3    S    
C19   H15   S    
C4    C5    A    
C20   C21   A    
C27   C28   A    
C24   H7    S    
C14   C15   A    
C37   H22   S    
C34   H11   S    
O20   H24   S    
C29   N1    A    
