data_str_m2_o4_o16_f0_pcu.sym.52
_audit_creation_date              2012-10-26T19:52:26-0400
_audit_creation_method            fapswitch 2.2
_symmetry_space_group_name_H-M    P1
_symmetry_Int_Tables_number       1
_space_group_crystal_system       triclinic
_cell_length_a                    9.565257
_cell_length_b                    10.88743
_cell_length_c                    13.510661
_cell_angle_alpha                 90.246359
_cell_angle_beta                  73.045394
_cell_angle_gamma                 89.922959
_cell_volume                      1345.84288065

loop_
_atom_site_label
_atom_site_type_symbol
_atom_type_description
_atom_site_fract_x
_atom_site_fract_y
_atom_site_fract_z
_atom_type_partial_charge
C1    C     C_R   0.500747 0.737313 0.498634 0.573230
C2    C     C_R   0.375170 0.520218 0.814643 0.010626
C3    C     C_R   0.391966 0.936283 0.472920 -0.004717
C4    C     C_R   0.422145 0.508125 0.699971 0.547354
C5    C     C_R   0.506386 0.869878 0.490840 -0.009604
C6    C     C_R   0.630681 0.933370 0.497872 -0.149800
C7    C     C_R   0.631863 0.062330 0.500943 0.213279
C8    C     C_R   0.506648 0.128338 0.494164 0.073308
C9    C     C_R   0.391565 0.062882 0.474733 -0.071798
C10   C     C_3   0.229402 0.069223 0.524189 0.160547
C11   C     C_3   0.229226 0.928770 0.522429 0.494169
C12   C     C_R   0.429540 0.541676 0.980987 0.025499
C13   C     C_R   0.939553 0.398065 0.468544 0.193643
C14   C     C_R   0.910476 0.597488 0.536757 -0.027069
C15   C     C_R   0.058414 0.596699 0.537832 -0.012677
C16   C     C_R   0.500584 0.262163 0.500219 0.598710
C17   C     C_R   0.087864 0.399323 0.466509 0.164707
C18   C     C_3   0.135466 0.346598 0.359845 -0.280452
C19   C     C_3   0.975872 0.339547 0.364101 -0.266905
C20   C     C_R   0.577765 0.507327 0.300539 0.545385
C21   C     C_R   0.783390 0.617974 0.032418 -0.073095
C22   C     C_R   0.619522 0.534052 0.188921 0.003289
C23   C     C_R   0.470582 0.559482 0.872007 -0.016057
C24   C     C_R   0.233540 0.482821 0.868489 -0.108052
C25   C     C_R   0.186993 0.480115 0.975793 -0.127928
C26   C     C_R   0.283705 0.507510 0.031820 -0.108986
C27   C     C_3   0.212337 0.863969 0.357085 -0.020345
C28   C     C_3   0.104787 0.814103 0.302621 -0.244402
C29   C     C_3   0.179161 0.795296 0.187171 -0.462717
C30   C     C_3   0.895177 0.496185 0.770977 -0.005323
C31   C     C_3   0.867207 0.389756 0.849610 -0.294828
C32   C     C_3   0.933673 0.270348 0.798176 -0.473035
C33   C     C_R   0.536310 0.557795 0.034655 -0.035827
C34   C     C_R   0.677243 0.600967 0.980787 0.011526
C35   C     C_R   0.715009 0.617640 0.873977 0.257761
C36   C     C_R   0.608048 0.610960 0.823316 -0.108585
C37   C     C_R   0.511968 0.521226 0.137803 -0.180883
C38   C     C_R   0.755814 0.585587 0.135522 0.192474
Cu1   Cu    Cu3+1 0.359330 0.500020 0.500010 0.967028
Cu2   Cu    Cu3+1 0.640670 0.499980 0.499990 0.971090
H1    H     H_    0.168556 0.112119 0.474885 0.094831
H2    H     H_    0.159541 0.452734 0.827048 0.134290
H3    H     H_    0.240313 0.502972 0.114836 0.097766
H4    H     H_    0.076427 0.452597 0.016029 0.113482
H5    H     H_    0.639992 0.640091 0.743847 0.149870
H6    H     H_    0.724061 0.883187 0.506902 0.128955
H7    H     H_    0.892440 0.527668 0.201302 0.319709
H8    H     H_    0.827150 0.063835 0.519223 0.316738
H9    H     H_    0.087780 0.107749 0.652885 0.314471
H10   H     H_    0.088083 0.882916 0.651653 0.330638
H11   H     H_    0.303400 0.796611 0.345575 0.164231
H12   H     H_    0.843089 0.676705 0.566896 0.134214
H13   H     H_    0.255094 0.953700 0.321829 0.110112
H14   H     H_    0.060555 0.724726 0.337344 0.192158
H15   H     H_    0.012215 0.879570 0.313223 0.176455
H16   H     H_    0.221343 0.884024 0.150148 0.148016
H17   H     H_    0.099440 0.758085 0.149444 0.204560
H18   H     H_    0.271282 0.729261 0.175132 0.151974
H19   H     H_    0.012415 0.496367 0.726546 0.175071
H20   H     H_    0.833524 0.477863 0.714439 0.155567
H21   H     H_    0.913689 0.411661 0.913673 0.159099
H22   H     H_    0.747815 0.374904 0.883038 0.168770
H23   H     H_    0.100075 0.673963 0.570181 0.202395
H24   H     H_    0.887322 0.246736 0.734082 0.165027
H25   H     H_    0.908800 0.194961 0.855719 0.158886
H26   H     H_    0.054033 0.279738 0.767463 0.189831
H27   H     H_    0.196919 0.413890 0.302019 0.136791
H28   H     H_    0.188895 0.255602 0.355127 0.112379
H29   H     H_    0.948281 0.397838 0.305862 0.128022
H30   H     H_    0.935210 0.243777 0.366972 0.165554
H31   H     H_    0.890029 0.654695 0.992125 0.181766
H32   H     H_    0.410889 0.478443 0.179297 0.121712
N1    N     N_R   0.852320 0.499070 0.499340 -0.247107
N2    N     N_R   0.148230 0.499110 0.499340 -0.254416
O1    O     O_R   0.381190 0.680360 0.500000 -0.477022
O2    O     O_3   0.750049 0.123739 0.516690 -0.703678
O3    O     O_3   0.194764 0.118692 0.624186 -0.676881
O4    O     O_3   0.195749 0.877019 0.621689 -0.645902
O5    O     O_3   0.139640 0.878953 0.463805 -0.615804
O6    O     O_3   0.860974 0.614608 0.817139 -0.591328
O7    O     O_R   0.618780 0.680320 0.499990 -0.525957
O8    O     O_R   0.323230 0.500000 0.650990 -0.499287
O9    O     O_R   0.560820 0.499960 0.650980 -0.520146
O10   O     O_R   0.381220 0.319680 0.500010 -0.489081
O11   O     O_R   0.618810 0.319640 0.500000 -0.443680
O12   O     O_R   0.439180 0.500040 0.349020 -0.527694
O13   O     O_R   0.676770 0.500000 0.349010 -0.488674
O14   O     O_3   0.862423 0.608852 0.182307 -0.717219

loop_
_geom_bond_atom_site_label_1
_geom_bond_atom_site_label_2
_ccdc_geom_bond_type
C20   O12   A    
C24   H2    S    
C31   H21   S    
C35   C36   A    
Cu2   O9    S    
C7    C8    A    
C12   C23   A    
C21   H31   S    
C1    C5    S    
Cu2   O13   S    
C28   C29   S    
Cu1   O10   S    
C18   C19   S    
C27   O5    S    
C5    C6    A    
C18   H28   S    
C22   C38   A    
C20   O13   A    
C35   O6    S    
C16   O10   A    
Cu2   N1    S    
C34   C35   A    
Cu1   N2    S    
H8    O2    S    
C28   H15   S    
C14   H12   S    
C21   C38   A    
C8    C9    A    
C30   H20   S    
Cu1   O1    S    
C9    C10   S    
C30   O6    S    
C8    C16   S    
C10   H1    S    
C31   H22   S    
H10   O4    S    
C25   H4    S    
C10   O3    S    
C27   H11   S    
C26   H3    S    
C17   C18   S    
C13   C19   S    
C1    O1    A    
C14   N1    A    
C24   C25   A    
C32   H24   S    
Cu1   Cu2   S    
C28   H14   S    
C21   C34   A    
C25   C26   A    
C22   C37   A    
C33   C37   A    
C38   O14   S    
Cu2   O11   S    
C2    C4    S    
C3    C9    A    
C11   O4    S    
C31   C32   S    
C30   C31   S    
C30   H19   S    
C33   C34   A    
C36   H5    S    
C6    C7    A    
C11   O5    S    
C20   C22   S    
C2    C24   A    
C17   N2    A    
C19   H29   S    
C2    C23   A    
C32   H26   S    
C6    H6    S    
C13   N1    A    
Cu2   O7    S    
Cu1   O8    S    
C29   H17   S    
C3    C5    A    
C27   H13   S    
C7    O2    S    
C29   H16   S    
C13   C17   A    
H7    O14   S    
C18   H27   S    
C16   O11   A    
C4    O9    A    
H9    O3    S    
C3    C11   S    
C10   C11   S    
C15   N2    A    
C4    O8    A    
C29   H18   S    
C23   C36   A    
C37   H32   S    
C12   C26   A    
C27   C28   S    
C15   H23   S    
C14   C15   A    
C19   H30   S    
Cu1   O12   S    
C12   C33   A    
C1    O7    A    
C32   H25   S    
