data_str_m2_o14_o14_f0_pcu.sym.116
_audit_creation_date              2012-12-10T17:17:50-0500
_audit_creation_method            fapswitch 2.2
_symmetry_space_group_name_H-M    P1
_symmetry_Int_Tables_number       1
_space_group_crystal_system       triclinic
_cell_length_a                    15.188424
_cell_length_b                    15.688378
_cell_length_c                    9.587428
_cell_angle_alpha                 90.210478
_cell_angle_beta                  87.378178
_cell_angle_gamma                 89.943302
_cell_volume                      2282.10068786

loop_
_atom_site_label
_atom_site_type_symbol
_atom_type_description
_atom_site_fract_x
_atom_site_fract_y
_atom_site_fract_z
_atom_type_partial_charge
C1    C     C_R   0.383759 0.878364 0.502627 0.836110
C2    C     C_R   0.383072 0.121087 0.502983 0.840477
C3    C     C_R   0.883759 0.378364 0.502627 0.836134
C4    C     C_R   0.883065 0.621082 0.502987 0.840449
C5    C     C_R   0.293796 0.224299 0.381650 -0.187916
C6    C     C_R   0.294190 0.774672 0.381317 -0.184530
C7    C     C_R   0.793805 0.724304 0.381661 -0.187969
C8    C     C_R   0.794184 0.274676 0.381318 -0.184533
C9    C     C_R   0.723601 0.779819 0.373261 0.385052
C10   C     C_R   0.723679 0.219436 0.373765 0.385237
C11   C     C_R   0.223587 0.279809 0.373263 0.385047
C12   C     C_R   0.223688 0.719429 0.373762 0.385238
C13   C     C_R   0.672294 0.801344 0.494618 -0.173158
C14   C     C_R   0.673275 0.197922 0.495930 -0.172902
C15   C     C_R   0.172295 0.301344 0.494632 -0.173180
C16   C     C_R   0.173277 0.697922 0.495924 -0.172919
C17   C     C_R   0.661466 0.999272 0.133019 0.029810
C18   C     C_R   0.161466 0.499260 0.133019 0.029823
C19   C     C_R   0.741130 0.998692 0.055965 -0.083060
C20   C     C_R   0.241130 0.498666 0.055965 -0.083137
C21   C     C_R   0.741760 0.998613 0.912448 -0.239578
C22   C     C_R   0.241760 0.498586 0.912449 -0.239473
C23   C     C_R   0.662847 0.999453 0.845213 -0.102725
C24   C     C_R   0.162847 0.499442 0.845213 -0.102721
C25   C     C_R   0.579850 0.999656 0.919636 0.210942
C26   C     C_R   0.079851 0.499651 0.919636 0.210932
C27   C     C_R   0.579543 0.999578 0.069185 0.206583
C28   C     C_R   0.079543 0.499572 0.069186 0.206592
C29   C     C_R   0.424334 0.000803 0.079504 0.040542
C30   C     C_R   0.924334 0.500808 0.079503 0.040336
C31   C     C_R   0.613365 0.123756 0.498382 0.804295
C32   C     C_R   0.613235 0.876176 0.497924 0.802403
C33   C     C_R   0.113366 0.623756 0.498381 0.804263
C34   C     C_R   0.113232 0.376173 0.497927 0.802438
C35   C     C_R   0.424340 0.000664 0.931522 -0.083732
C36   C     C_R   0.924343 0.500663 0.931522 -0.083620
C37   C     C_R   0.286963 0.186945 0.769134 0.205063
C38   C     C_R   0.293778 0.808642 0.768844 0.201053
C39   C     C_R   0.786885 0.686893 0.769151 0.205046
C40   C     C_R   0.793797 0.308624 0.768848 0.201086
C41   C     C_R   0.219352 0.176444 0.872972 0.395253
C42   C     C_R   0.228687 0.818087 0.876481 0.412818
C43   C     C_R   0.719237 0.676381 0.872939 0.395123
C44   C     C_R   0.728716 0.318051 0.876505 0.412828
C45   C     C_R   0.635242 0.707025 0.850301 -0.174220
C46   C     C_R   0.644053 0.288217 0.857531 -0.180809
C47   C     C_R   0.135348 0.207083 0.850390 -0.174159
C48   C     C_R   0.144024 0.788258 0.857492 -0.180785
C49   C     C_R   0.619438 0.750335 0.727536 -0.226754
C50   C     C_R   0.624757 0.247346 0.733331 -0.228745
C51   C     C_R   0.119502 0.250373 0.727620 -0.226794
C52   C     C_R   0.124739 0.747368 0.733302 -0.228791
C53   C     C_R   0.684815 0.754904 0.618439 0.007974
C54   C     C_R   0.688111 0.243127 0.620886 0.003145
C55   C     C_R   0.184846 0.254926 0.618468 0.007942
C56   C     C_R   0.188103 0.743137 0.620873 0.003143
C57   C     C_R   0.264113 0.209577 0.632210 0.009074
C58   C     C_R   0.268136 0.787456 0.632797 0.011876
C59   C     C_R   0.764074 0.709548 0.632211 0.009116
C60   C     C_R   0.768145 0.287445 0.632804 0.011863
C61   C     C_R   0.316190 0.189307 0.509124 -0.170569
C62   C     C_R   0.317951 0.809196 0.508608 -0.165738
C63   C     C_R   0.816177 0.689297 0.509136 -0.170678
C64   C     C_R   0.817952 0.309194 0.508610 -0.165737
Cu1   Cu    Cu3+1 0.499990 0.000000 0.640660 0.939952
Cu2   Cu    Cu3+1 0.999990 0.500000 0.640660 0.940022
Cu3   Cu    Cu3+1 0.500010 0.000000 0.359340 1.000979
Cu4   Cu    Cu3+1 0.000010 0.500000 0.359340 1.000963
H1    H     H_    0.330830 0.207921 0.285980 0.227527
H2    H     H_    0.330483 0.791194 0.285362 0.232993
H3    H     H_    0.830849 0.707933 0.285995 0.227445
H4    H     H_    0.830473 0.291202 0.285362 0.233025
H5    H     H_    0.803928 0.998080 0.852404 0.147262
H6    H     H_    0.303928 0.498045 0.852405 0.147266
H7    H     H_    0.671903 0.000035 0.735009 0.201564
H8    H     H_    0.171903 0.500033 0.735009 0.201552
H9    H     H_    0.362310 0.001070 0.880443 0.190777
H10   H     H_    0.862312 0.501071 0.880443 0.190775
H11   H     H_    0.583567 0.701559 0.931183 0.196359
H12   H     H_    0.594848 0.292552 0.942359 0.198327
H13   H     H_    0.083701 0.201631 0.931316 0.196385
H14   H     H_    0.094810 0.792606 0.942305 0.198241
H15   H     H_    0.554440 0.776211 0.715723 0.203674
H16   H     H_    0.558771 0.223201 0.723598 0.205186
H17   H     H_    0.054499 0.276246 0.715855 0.203707
H18   H     H_    0.058755 0.723219 0.723562 0.205172
H19   H     H_    0.362396 0.001525 0.139598 0.223121
H20   H     H_    0.862395 0.501540 0.139596 0.223114
H21   H     H_    0.668070 0.999498 0.242626 0.202014
H22   H     H_    0.168070 0.499494 0.242626 0.202024
H23   H     H_    0.802760 0.998316 0.108475 0.163674
H24   H     H_    0.302760 0.498282 0.108475 0.163667
N1    N     N_R   0.501200 0.000000 0.147910 -0.221855
N2    N     N_R   0.001200 0.500000 0.147910 -0.221834
N3    N     N_R   0.501270 0.000000 0.852040 -0.221966
N4    N     N_R   0.001270 0.500000 0.852040 -0.221904
O1    O     O_R   0.409820 0.909830 0.618810 -0.578354
O2    O     O_R   0.409820 0.090170 0.618810 -0.570058
O3    O     O_R   0.909820 0.409830 0.618810 -0.578328
O4    O     O_R   0.909820 0.590170 0.618810 -0.569922
O5    O     O_R   0.409840 0.909830 0.381240 -0.573954
O6    O     O_R   0.409840 0.090170 0.381240 -0.578339
O7    O     O_R   0.909840 0.409830 0.381240 -0.573944
O8    O     O_R   0.909840 0.590170 0.381240 -0.578372
O9    O     O_R   0.590170 0.090170 0.618760 -0.611951
O10   O     O_R   0.590170 0.909830 0.618760 -0.612484
O11   O     O_R   0.090170 0.590170 0.618760 -0.611921
O12   O     O_R   0.090170 0.409830 0.618760 -0.612506
O13   O     O_R   0.590190 0.090180 0.381190 -0.558401
O14   O     O_R   0.590190 0.909820 0.381190 -0.558452
O15   O     O_R   0.090190 0.590180 0.381190 -0.558404
O16   O     O_R   0.090190 0.409820 0.381190 -0.558443
N5    N     N_2   0.373866 0.203977 0.811431 -0.402565
H25   H     H_    0.392652 0.169167 0.895879 0.289597
C65   C     C_3   0.389871 0.294259 0.830133 -0.671221
H26   H     H_    0.456051 0.304457 0.869915 0.216684
H27   H     H_    0.340978 0.321911 0.907509 0.263817
H28   H     H_    0.386132 0.328270 0.729139 0.228280
N6    N     N_2   0.381615 0.790907 0.805426 -0.408622
H29   H     H_    0.406292 0.832020 0.877871 0.288322
C66   C     C_3   0.397128 0.701888 0.838281 -0.654466
H30   H     H_    0.423649 0.696267 0.943948 0.237007
H31   H     H_    0.444963 0.674106 0.760049 0.219720
H32   H     H_    0.335883 0.663026 0.837194 0.241595
N7    N     N_2   0.873781 0.703870 0.811529 -0.402436
H33   H     H_    0.892438 0.669196 0.896218 0.289554
C67   C     C_3   0.889920 0.794168 0.829773 -0.670871
H34   H     H_    0.955977 0.804280 0.870163 0.216702
H35   H     H_    0.840782 0.822129 0.906574 0.263506
H36   H     H_    0.886642 0.827950 0.728417 0.228181
N8    N     N_2   0.881650 0.290930 0.805392 -0.408579
H37   H     H_    0.906313 0.332023 0.877885 0.288322
C68   C     C_3   0.897221 0.201908 0.838125 -0.654628
H38   H     H_    0.923852 0.196265 0.943704 0.236929
H39   H     H_    0.944990 0.174160 0.759763 0.219764
H40   H     H_    0.835982 0.163033 0.837156 0.241599
Cl1   Cl    Cl    0.239232 0.129754 0.034786 -0.629900
Cl2   Cl    Cl    0.252962 0.863185 0.037881 -0.631146
Cl3   Cl    Cl    0.739043 0.629660 0.034765 -0.629733
Cl4   Cl    Cl    0.752997 0.363158 0.037893 -0.631103
Cl5   Cl    Cl    0.698891 0.811717 0.204161 -0.626427
Cl6   Cl    Cl    0.697704 0.187424 0.204872 -0.621439
Cl7   Cl    Cl    0.198855 0.311699 0.204171 -0.626528
Cl8   Cl    Cl    0.197725 0.687408 0.204867 -0.621466

loop_
_geom_bond_atom_site_label_1
_geom_bond_atom_site_label_2
_ccdc_geom_bond_type
C58   C62   A    
Cu2   Cu4   S    
C6    H2    S    
C39   N7    S    
C42   Cl2   S    
C34   O16   A    
C13   C32   S    
C33   O11   A    
Cu4   O7    S    
Cu2   O11   S    
C1    C62   S    
C51   H17   S    
C16   C56   A    
C53   C59   A    
C50   H16   S    
C54   C60   A    
C3    C64   S    
C20   H24   S    
C4    C63   S    
C50   C54   A    
C32   O14   A    
C40   C60   A    
C19   C21   A    
C24   C26   A    
Cu1   O2    S    
C5    C11   A    
C7    H3    S    
C37   N5    S    
C2    O6    A    
C65   H26   S    
C21   H5    S    
C18   C20   A    
C28   N2    A    
C10   Cl6   S    
Cu2   O4    S    
C9    C13   A    
C66   H32   S    
C5    H1    S    
C38   C58   A    
C11   C15   A    
Cu3   O13   S    
C12   C16   A    
C56   C58   A    
Cu1   Cu3   S    
C68   H40   S    
C43   Cl3   S    
C33   O15   A    
C45   C49   A    
C14   C31   S    
C15   C34   S    
C41   Cl1   S    
C2    C61   S    
Cu2   O12   S    
C23   C25   A    
C44   Cl4   S    
C32   O10   A    
C31   O9    A    
Cu1   O9    S    
C26   C28   A    
C29   N1    A    
C44   C46   A    
C13   C53   A    
N6    C66   S    
C26   N4    A    
C8    H4    S    
C66   H31   S    
Cu1   N3    S    
C5    C61   A    
C18   H22   S    
C17   H21   S    
C10   C14   A    
C1    O1    A    
C9    Cl5   S    
C24   H8    S    
C39   C43   A    
Cu3   N1    S    
C65   H27   S    
C35   H9    S    
Cu4   N2    S    
C12   Cl8   S    
Cu4   O15   S    
C17   C27   A    
Cu2   O3    S    
C67   H35   S    
C16   C33   S    
C36   N4    A    
Cu3   O14   S    
C48   C52   A    
C65   H28   S    
C39   C59   A    
C41   C47   A    
C18   C28   A    
C45   H11   S    
C42   C48   A    
N7    C67   S    
C43   C45   A    
C7    C63   A    
C66   H30   S    
C8    C64   A    
C38   N6    S    
C14   C54   A    
C40   N8    S    
C20   C22   A    
C25   N3    A    
C21   C23   A    
N7    H33   S    
C22   C24   A    
C27   N1    A    
C22   H6    S    
C30   H20   S    
C67   H34   S    
C1    O5    A    
Cu1   O10   S    
Cu3   O5    S    
Cu2   N4    S    
N5    H25   S    
C3    O7    A    
C7    C9    A    
C46   C50   A    
C31   O13   A    
Cu4   O8    S    
C23   H7    S    
N8    C68   S    
C47   C51   A    
N6    H29   S    
C57   C61   A    
C35   N3    A    
C25   C27   A    
C29   C35   A    
C59   C63   A    
C4    O4    A    
C30   C36   A    
C60   C64   A    
C34   O12   A    
C6    C62   A    
C55   C57   A    
C67   H36   S    
Cu1   O1    S    
C30   N2    A    
C36   H10   S    
C6    C12   A    
C49   H15   S    
C68   H38   S    
C52   C56   A    
C49   C53   A    
C4    O8    A    
C52   H18   S    
C17   C19   A    
C48   H14   S    
C51   C55   A    
C47   H13   S    
C37   C41   A    
C37   C57   A    
C29   H19   S    
C19   H23   S    
C38   C42   A    
C3    O3    A    
C40   C44   A    
C2    O2    A    
C8    C10   A    
C68   H39   S    
C46   H12   S    
C11   Cl7   S    
Cu4   O16   S    
N8    H37   S    
Cu3   O6    S    
C15   C55   A    
N5    C65   S    
