data_str_m12_o9_o13_f0_bcu.sym.143
_audit_creation_date              2012-12-11T17:43:19-0500
_audit_creation_method            fapswitch 2.2
_symmetry_space_group_name_H-M    P1
_symmetry_Int_Tables_number       1
_space_group_crystal_system       triclinic
_cell_length_a                    14.84277
_cell_length_b                    15.089649
_cell_length_c                    16.939072
_cell_angle_alpha                 109.105906
_cell_angle_beta                  106.359074
_cell_angle_gamma                 108.495637
_cell_volume                      3069.07514435

loop_
_atom_site_label
_atom_site_type_symbol
_atom_type_description
_atom_site_fract_x
_atom_site_fract_y
_atom_site_fract_z
_atom_type_partial_charge
C1    C     C_R   0.091900 0.276220 0.029210 -0.134068
C2    C     C_R   0.914771 0.708350 0.916189 -0.133004
C3    C     C_R   0.030268 0.465999 0.726335 0.061279
C4    C     C_R   0.975148 0.422758 0.256396 0.064969
C5    C     C_R   0.658128 0.222896 0.749404 0.095848
C6    C     C_R   0.241633 0.802006 0.276234 0.088704
C7    C     C_R   0.366325 0.573620 0.070496 0.068301
C8    C     C_R   0.701389 0.533462 0.026717 0.061883
C9    C     C_R   0.911052 0.884620 0.877998 -0.235613
C10   C     C_R   0.096920 0.065368 0.948899 -0.240900
C11   C     C_R   0.006368 0.882353 0.912930 0.050541
C12   C     C_R   0.002204 0.072805 0.934179 0.066103
C13   C     C_R   0.100353 0.970328 0.937977 0.028727
C14   C     C_R   0.907033 0.978798 0.893557 0.042739
C15   C     C_R   0.724205 0.929309 0.788234 -0.166090
C16   C     C_R   0.295867 0.041965 0.024968 -0.176017
C17   C     C_R   0.597907 0.946711 0.849204 -0.134136
C18   C     C_R   0.389193 0.950221 0.967664 -0.101355
C19   C     C_R   0.459679 0.561101 0.347528 -0.253871
C20   C     C_R   0.473460 0.567037 0.777427 -0.329517
C21   C     C_R   0.491394 0.598086 0.289379 -0.227484
C22   C     C_R   0.491697 0.559073 0.859867 -0.217974
C23   C     C_R   0.936335 0.450849 0.734747 -0.130106
C24   C     C_R   0.066112 0.482273 0.253904 -0.164658
C25   C     C_R   0.507038 0.533985 0.218366 0.133678
C26   C     C_R   0.581257 0.637157 0.941630 0.133300
C27   C     C_R   0.492972 0.433509 0.208031 -0.235826
C28   C     C_R   0.648935 0.725395 0.941032 -0.273696
C29   C     C_R   0.461702 0.396949 0.266321 -0.283651
C30   C     C_R   0.633250 0.729277 0.857580 -0.238413
C31   C     C_R   0.442087 0.459544 0.334966 0.616439
C32   C     C_R   0.547573 0.649917 0.775019 0.665933
C33   C     C_R   0.617955 0.557647 0.134484 -0.243376
C34   C     C_R   0.529069 0.666784 0.065249 -0.226660
C35   C     C_R   0.637805 0.576968 0.063892 0.056558
C36   C     C_R   0.481730 0.613530 0.107025 0.035245
C37   C     C_R   0.592337 0.634109 0.029545 0.040706
C38   C     C_R   0.536081 0.570623 0.153824 0.052710
C39   C     C_R   0.622213 0.915458 0.773779 -0.051294
C40   C     C_R   0.389616 0.034709 0.034502 -0.110282
C41   C     C_R   0.969356 0.382888 0.324015 0.124258
C42   C     C_R   0.041531 0.423037 0.640498 0.134480
C43   C     C_R   0.148638 0.448176 0.557825 -0.219763
C44   C     C_R   0.865791 0.305996 0.393421 -0.222082
C45   C     C_R   0.717028 0.219390 0.826443 -0.150503
C46   C     C_R   0.223156 0.796790 0.188911 -0.132330
C47   C     C_R   0.141015 0.460214 0.640127 -0.182481
C48   C     C_R   0.871397 0.323579 0.318985 -0.177976
C49   C     C_R   0.951240 0.358262 0.556366 -0.279846
C50   C     C_R   0.062080 0.413170 0.399629 -0.289343
C51   C     C_R   0.957730 0.350582 0.474334 0.186395
C52   C     C_R   0.056890 0.400465 0.476039 0.200784
C53   C     C_R   0.547167 0.149109 0.685029 -0.039303
C54   C     C_R   0.279944 0.896668 0.363563 -0.044877
C55   C     C_R   0.376564 0.086617 0.449630 -0.169461
C56   C     C_R   0.409678 0.970592 0.611492 -0.179280
C57   C     C_R   0.313956 0.996074 0.365781 -0.253015
C58   C     C_R   0.499790 0.053860 0.687015 -0.269243
C59   C     C_R   0.295053 0.890738 0.447726 0.501108
C60   C     C_R   0.491543 0.165529 0.613289 0.509840
C61   C     C_R   0.370877 0.979406 0.530341 -0.026640
C62   C     C_R   0.412466 0.077960 0.531146 -0.043794
C63   C     C_R   0.675557 0.991749 0.939345 -0.117773
C64   C     C_R   0.295132 0.873081 0.890813 -0.122364
C65   C     C_R   0.777252 0.004009 0.954214 -0.164151
C66   C     C_R   0.201208 0.880069 0.880797 -0.144534
C67   C     C_R   0.305253 0.600503 0.012424 -0.134265
C68   C     C_R   0.733908 0.461822 0.045403 -0.131815
C69   C     C_R   0.802275 0.973412 0.878611 0.064400
C70   C     C_R   0.200546 0.964182 0.948259 0.115552
C71   C     C_R   0.722542 0.311786 0.748439 -0.144273
C72   C     C_R   0.221381 0.701274 0.265745 -0.133271
C73   C     C_R   0.296936 0.502494 0.085307 -0.139121
C74   C     C_R   0.743596 0.558218 0.969031 -0.146307
C75   C     C_R   0.111646 0.536923 0.813500 -0.135369
C76   C     C_R   0.892108 0.397942 0.176882 -0.141041
C77   C     C_R   0.918262 0.196211 0.944717 -0.129251
C78   C     C_R   0.087531 0.794076 0.997094 -0.148976
C79   C     C_R   0.005238 0.177857 0.965651 0.053236
C80   C     C_R   0.003682 0.798364 0.940430 0.065538
H1    H     H_    0.173383 0.292914 0.061099 0.093315
H2    H     H_    0.836662 0.677792 0.863241 0.086490
H3    H     H_    0.741834 0.903558 0.729327 0.126757
H4    H     H_    0.297436 0.107219 0.078085 0.104121
H5    H     H_    0.447697 0.611060 0.401956 0.141991
H6    H     H_    0.402325 0.509592 0.715664 0.127984
H7    H     H_    0.502714 0.676078 0.299026 0.144902
H8    H     H_    0.434652 0.494347 0.861152 0.150659
H9    H     H_    0.504705 0.382674 0.153921 0.135547
H10   H     H_    0.715415 0.789015 0.004299 0.151414
H11   H     H_    0.453076 0.320079 0.258120 0.126161
H12   H     H_    0.688162 0.793724 0.856673 0.166392
H13   H     H_    0.659614 0.524346 0.169359 0.128266
H14   H     H_    0.497067 0.711762 0.038917 0.128538
H15   H     H_    0.138585 0.455902 0.403981 0.126718
H16   H     H_    0.874393 0.324333 0.554962 0.121472
H17   H     H_    0.798466 0.296176 0.260522 0.113263
H18   H     H_    0.212764 0.506340 0.703493 0.119996
H19   H     H_    0.225441 0.485864 0.560149 0.127771
H20   H     H_    0.789224 0.266114 0.390746 0.129488
H21   H     H_    0.857013 0.400853 0.681379 0.096355
H22   H     H_    0.145909 0.502264 0.296631 0.096511
H23   H     H_    0.561733 0.879576 0.703996 0.130616
H24   H     H_    0.462577 0.094402 0.093987 0.102808
H25   H     H_    0.534385 0.041556 0.744866 0.148292
H26   H     H_    0.297899 0.004635 0.303114 0.140914
H27   H     H_    0.405801 0.161895 0.449215 0.168032
H28   H     H_    0.377494 0.896818 0.613956 0.174983
H29   H     H_    0.518765 0.935675 0.837702 0.108604
H30   H     H_    0.461724 0.944464 0.975476 0.098863
H31   H     H_    0.656568 0.015591 0.997589 0.107560
H32   H     H_    0.294959 0.807755 0.839041 0.112893
H33   H     H_    0.836272 0.036552 0.024133 0.123789
H34   H     H_    0.128928 0.819652 0.820824 0.118271
H35   H     H_    0.687683 0.170309 0.856590 0.106458
H36   H     H_    0.230904 0.860069 0.170839 0.097682
H37   H     H_    0.332747 0.663154 0.994535 0.092242
H38   H     H_    0.715758 0.424645 0.087348 0.092363
H39   H     H_    0.699030 0.346240 0.704583 0.151191
H40   H     H_    0.230897 0.674132 0.317337 0.160987
H41   H     H_    0.314351 0.470705 0.132652 0.114755
H42   H     H_    0.740524 0.612742 0.942355 0.123654
H43   H     H_    0.195218 0.566365 0.833822 0.098677
H44   H     H_    0.811380 0.340245 0.148962 0.085000
H45   H     H_    0.840027 0.144503 0.891987 0.131926
H46   H     H_    0.170000 0.844633 0.023099 0.116727
H47   H     H_    0.838279 0.814934 0.849173 0.117193
H48   H     H_    0.168767 0.134130 0.971035 0.127458
N1    N     N_R   0.055660 0.348550 0.045620 -0.038995
N2    N     N_R   0.944340 0.651450 0.954380 -0.040232
N3    N     N_R   0.960830 0.507850 0.823700 -0.040281
N4    N     N_R   0.039170 0.492150 0.176300 -0.039961
N5    N     N_R   0.811290 0.303410 0.871650 -0.041875
N6    N     N_R   0.188710 0.696590 0.128350 -0.041149
N7    N     N_R   0.205200 0.552990 0.997670 -0.039396
N8    N     N_R   0.794800 0.447010 0.002330 -0.038829
N9    N     N_R   0.814800 0.361830 0.823700 -0.044744
N10   N     N_R   0.185200 0.638170 0.176300 -0.048840
N11   N     N_R   0.201680 0.494570 0.045620 -0.039838
N12   N     N_R   0.798320 0.505430 0.954380 -0.041605
N13   N     N_R   0.068420 0.560530 0.871650 -0.038398
N14   N     N_R   0.931580 0.439470 0.128350 -0.036721
N15   N     N_R   0.948070 0.295860 0.997670 -0.041916
N16   N     N_R   0.051930 0.704140 0.002330 -0.039914
Ni1   Ni    Ni4+2 0.119340 0.493420 0.109960 0.206973
Ni2   Ni    Ni4+2 0.880660 0.506580 0.890040 0.209281
Ni3   Ni    Ni4+2 0.872590 0.372590 0.000000 0.211006
Ni4   Ni    Ni4+2 0.127410 0.627410 0.000000 0.214871
O1    O     O_3   0.414849 0.426651 0.395703 -0.697273
C81   C     C_3   0.313668 0.340153 0.347432 0.157322
H49   H     H_    0.313916 0.270310 0.297959 0.099818
H50   H     H_    0.254920 0.360120 0.309275 0.093548
C82   C     C_3   0.281365 0.312300 0.417395 -0.268762
H51   H     H_    0.340765 0.294788 0.457315 0.201662
H52   H     H_    0.279482 0.380720 0.466602 0.191529
C83   C     C_3   0.173431 0.217456 0.369997 -1.006481
H53   H     H_    0.112967 0.233009 0.328895 0.274195
H54   H     H_    0.151318 0.201510 0.423108 0.273521
H55   H     H_    0.175259 0.146876 0.323655 0.265619
O2    O     O_3   0.534988 0.659787 0.694634 -0.690695
C84   C     C_3   0.534397 0.573779 0.627164 0.186341
H56   H     H_    0.515751 0.582682 0.562849 0.182134
H57   H     H_    0.471196 0.497162 0.609727 0.096310
C85   C     C_3   0.642244 0.573343 0.655565 -0.381529
H58   H     H_    0.704355 0.651347 0.674528 0.208680
H59   H     H_    0.660321 0.558073 0.716664 0.184195
C86   C     C_3   0.643814 0.488359 0.577224 -0.885904
H60   H     H_    0.581067 0.409870 0.556206 0.287120
H61   H     H_    0.721188 0.487495 0.600948 0.245683
H62   H     H_    0.631741 0.504408 0.516555 0.274721
O3    O     O_3   0.507259 0.265122 0.624490 -0.701294
C87   C     C_3   0.462065 0.304143 0.683001 0.152390
H63   H     H_    0.482213 0.386157 0.695653 0.142507
H64   H     H_    0.497837 0.307648 0.751965 0.111905
C88   C     C_3   0.340712 0.240834 0.638788 -0.331316
H65   H     H_    0.306105 0.240866 0.571576 0.211331
H66   H     H_    0.317965 0.158162 0.625898 0.199774
C89   C     C_3   0.292207 0.283855 0.700996 -0.987955
H67   H     H_    0.333132 0.294723 0.771853 0.264081
H68   H     H_    0.208032 0.227400 0.672071 0.274121
H69   H     H_    0.295472 0.359092 0.703937 0.264310
O4    O     O_3   0.246969 0.797284 0.450216 -0.697653
C90   C     C_3   0.139945 0.771391 0.429859 0.157817
H70   H     H_    0.096463 0.684629 0.400413 0.146352
H71   H     H_    0.102307 0.792265 0.376352 0.096319
C91   C     C_3   0.128051 0.822296 0.518332 -0.308811
H72   H     H_    0.166297 0.800926 0.570807 0.210868
H73   H     H_    0.167511 0.909226 0.546929 0.193733
C92   C     C_3   0.012418 0.786084 0.499449 -0.979140
H74   H     H_    0.972881 0.807886 0.448004 0.266818
H75   H     H_    0.006443 0.824515 0.564669 0.269988
H76   H     H_    0.971697 0.699518 0.472750 0.267804

loop_
_geom_bond_atom_site_label_1
_geom_bond_atom_site_label_2
_ccdc_geom_bond_type
O3    C87   S    
C63   C65   A    
C3    C42   S    
N5    N9    A    
N2    Ni2   S    
C34   C37   A    
C11   C13   A    
C7    C36   S    
C3    C23   A    
N16   Ni4   S    
C19   C31   A    
C21   H7    S    
C84   H56   S    
C77   H45   S    
C86   H61   S    
C66   C70   A    
N7    N11   A    
C48   H17   S    
C9    H47   S    
C47   H18   S    
C75   H43   S    
N4    Ni1   S    
C5    C53   S    
C83   H53   S    
C35   C37   A    
C43   H19   S    
C1    N1    A    
C90   H71   S    
C6    C46   A    
C4    C24   A    
C78   C80   A    
C50   H15   S    
C64   H32   S    
C40   H24   S    
C13   C70   S    
N10   Ni1   S    
C1    H1    S    
C12   C79   S    
C16   H4    S    
C27   C29   A    
C88   H66   S    
N3    Ni2   S    
C60   C62   A    
C17   C39   A    
C92   H75   S    
C18   C40   A    
O4    C90   S    
C56   H28   S    
C75   N13   A    
N13   Ni4   S    
C68   H38   S    
C92   H76   S    
C28   C30   A    
C49   C51   A    
C81   C82   S    
C20   H6    S    
C50   C52   A    
C7    C73   A    
N5    Ni3   S    
C22   H8    S    
C86   H62   S    
N2    N16   A    
N1    Ni1   S    
N3    N13   A    
C87   C88   S    
N8    N12   A    
C72   N10   A    
C57   H26   S    
N8    Ni3   S    
C85   H58   S    
C61   C62   A    
C6    C54   S    
C17   H29   S    
C10   H48   S    
C26   C28   A    
C84   H57   S    
C53   C60   A    
C87   H64   S    
C89   H67   S    
C88   C89   S    
C54   C59   A    
C77   C79   A    
N4    N14   A    
C15   C69   A    
C59   C61   A    
C51   C52   A    
C76   H44   S    
C18   H30   S    
N9    Ni2   S    
C68   N8    A    
C16   C70   A    
C71   N9    A    
C90   C91   S    
N12   Ni2   S    
C86   H60   S    
C2    N2    A    
C15   H3    S    
C73   N11   A    
C74   N12   A    
C55   H27   S    
C8    C35   S    
C64   C66   A    
C59   O4    S    
C6    C72   A    
C9    C14   A    
C77   N15   A    
C90   H70   S    
C67   N7    A    
C78   N16   A    
C25   C38   S    
C46   N6    A    
C9    C11   A    
C45   H35   S    
C88   H65   S    
C72   H40   S    
C8    C74   A    
C23   N3    A    
C82   C83   S    
C67   H37   S    
C15   C39   A    
C10   C12   A    
C16   C40   A    
C44   C51   A    
C30   H12   S    
C74   H42   S    
C12   C14   A    
C8    C68   A    
C73   H41   S    
C55   C57   A    
C1    C79   A    
C14   C69   S    
C81   H50   S    
C2    H2    S    
C82   H52   S    
C91   H73   S    
C36   C38   A    
C78   H46   S    
C41   C50   A    
C29   H11   S    
C84   C85   S    
C3    C75   A    
C87   H63   S    
C20   C32   A    
C65   C69   A    
C21   C25   A    
N11   Ni1   S    
C66   H34   S    
C19   C21   A    
C81   H49   S    
C60   O3    S    
C65   H33   S    
N14   Ni3   S    
C83   H55   S    
C34   H14   S    
C20   C22   A    
C19   H5    S    
C10   C13   A    
C33   H13   S    
N6    N10   A    
C89   H68   S    
C53   C58   A    
C26   C37   S    
C39   H23   S    
N1    N15   A    
C71   H39   S    
C25   C27   A    
N6    Ni4   S    
C45   N5    A    
C33   C38   A    
C46   H36   S    
C58   H25   S    
O2    C84   S    
C91   C92   S    
C85   H59   S    
C91   H72   S    
N15   Ni3   S    
C5    C71   A    
C4    C41   S    
O1    C81   S    
C17   C63   A    
C30   C32   A    
C24   N4    A    
C44   H20   S    
C18   C64   A    
C23   H21   S    
C5    C45   A    
C31   O1    S    
C83   H54   S    
C33   C35   A    
C41   C48   A    
C56   C58   A    
C27   H9    S    
C24   H22   S    
C42   C47   A    
C85   C86   S    
C49   H16   S    
C63   H31   S    
C92   H74   S    
C43   C52   A    
C4    C76   A    
C89   H69   S    
C2    C80   A    
C11   C80   S    
C42   C49   A    
C7    C67   A    
C55   C62   A    
C34   C36   A    
C29   C31   A    
N7    Ni4   S    
C22   C26   A    
C56   C61   A    
C28   H10   S    
C82   H51   S    
C43   C47   A    
C44   C48   A    
C32   O2    S    
C54   C57   A    
C76   N14   A    
