data_str_m2_o10_o29_f0_pcu.sym.128
_audit_creation_date              2012-12-10T16:51:12-0500
_audit_creation_method            fapswitch 2.2
_symmetry_space_group_name_H-M    P1
_symmetry_Int_Tables_number       1
_space_group_crystal_system       triclinic
_cell_length_a                    27.876151
_cell_length_b                    8.845329
_cell_length_c                    7.41253
_cell_angle_alpha                 101.966044
_cell_angle_beta                  95.122908
_cell_angle_gamma                 94.995812
_cell_volume                      1770.38817365

loop_
_atom_site_label
_atom_site_type_symbol
_atom_type_description
_atom_site_fract_x
_atom_site_fract_y
_atom_site_fract_z
_atom_type_partial_charge
C1    C     C_R   0.497907 0.200311 0.454727 0.836973
C2    C     C_R   0.502602 0.799632 0.544858 0.840266
C3    C     C_R   0.101776 0.516069 0.516293 -0.083301
C4    C     C_R   0.896436 0.479920 0.446504 -0.083444
C5    C     C_R   0.124755 0.378952 0.488367 -0.013582
C6    C     C_R   0.873427 0.616955 0.476626 -0.017412
C7    C     C_R   0.096984 0.234645 0.445669 -0.161835
C8    C     C_R   0.901142 0.761318 0.516541 -0.157640
C9    C     C_R   0.130433 0.661447 0.562032 -0.049380
C10   C     C_R   0.867836 0.334446 0.402347 -0.048621
C11   C     C_R   0.354429 0.510810 0.505835 -0.176897
C12   C     C_R   0.645174 0.484727 0.492564 -0.158126
C13   C     C_R   0.970745 0.350534 0.426162 0.010305
C14   C     C_R   0.027439 0.645642 0.532648 0.010588
C15   C     C_R   0.975954 0.636846 0.509457 0.068628
C16   C     C_R   0.022220 0.359296 0.449409 0.068801
C17   C     C_R   0.947905 0.489019 0.460645 0.069145
C18   C     C_R   0.050286 0.507102 0.499234 0.068585
C19   C     C_R   0.941185 0.207467 0.363690 -0.249167
C20   C     C_R   0.056978 0.788743 0.595193 -0.249948
C21   C     C_R   0.890560 0.197938 0.350592 0.178846
C22   C     C_R   0.107624 0.798124 0.611219 0.177134
C23   C     C_R   0.407325 0.500880 0.501240 0.854336
C24   C     C_R   0.592617 0.498717 0.498828 0.870445
C25   C     C_R   0.046876 0.224566 0.428163 -0.221856
C26   C     C_R   0.951249 0.771496 0.530903 -0.222412
C27   C     C_2   0.491163 0.034156 0.431473 0.115181
C28   C     C_2   0.510413 0.965374 0.565951 -0.018795
C29   C     C_R   0.175359 0.388383 0.503761 0.550578
C30   C     C_R   0.822871 0.607312 0.467006 0.551344
C31   C     C_R   0.181154 0.664624 0.556305 0.558435
C32   C     C_R   0.817296 0.331001 0.412860 0.562778
C33   C     C_R   0.287375 0.622496 0.657995 -0.024839
C34   C     C_R   0.710331 0.374484 0.326651 -0.103058
C35   C     C_R   0.337148 0.615799 0.652258 0.075653
C36   C     C_R   0.660632 0.380260 0.341522 0.075673
C37   C     C_R   0.320114 0.417478 0.364674 0.340397
C38   C     C_R   0.680587 0.574987 0.632087 0.354697
C39   C     C_R   0.271032 0.436719 0.365999 -0.184231
C40   C     C_R   0.729463 0.556143 0.621099 -0.154172
C41   C     C_R   0.254032 0.532658 0.515757 0.209607
C42   C     C_R   0.744853 0.462772 0.465551 0.229768
Cu1   Cu    Cu3+1 0.505380 0.517380 0.684380 1.115803
Cu2   Cu    Cu3+1 0.494620 0.482620 0.315620 1.135992
H1    H     H_    0.458823 0.387419 0.950224 0.247953
H2    H     H_    0.540746 0.614365 0.050184 0.272510
H3    H     H_    0.245031 0.368000 0.256077 0.196094
H4    H     H_    0.756527 0.623266 0.728129 0.208852
H5    H     H_    0.113923 0.127662 0.423086 0.203746
H6    H     H_    0.884178 0.868249 0.539841 0.205811
H7    H     H_    0.722229 0.302069 0.205960 0.167243
H8    H     H_    0.274646 0.696787 0.775387 0.191606
H9    H     H_    0.956357 0.100085 0.318898 0.133350
H10   H     H_    0.041759 0.896282 0.638330 0.133447
H11   H     H_    0.028770 0.108316 0.400395 0.136014
H12   H     H_    0.969313 0.887725 0.557117 0.136098
N1    N     N_R   0.202545 0.529193 0.527774 -0.456054
N2    N     N_R   0.795935 0.466381 0.445348 -0.456875
N3    N     N_2   0.486510 0.456430 0.038510 -0.159748
N4    N     N_2   0.513490 0.543570 0.961490 -0.146686
O1    O     O_R   0.503500 0.286120 0.619780 -0.575933
O2    O     O_R   0.496500 0.713880 0.380220 -0.551136
O3    O     O_R   0.494410 0.256780 0.308360 -0.499253
O4    O     O_R   0.505590 0.743220 0.691640 -0.528789
O5    O     O_R   0.434810 0.514700 0.655690 -0.628597
O6    O     O_R   0.565190 0.485300 0.344310 -0.575434
O7    O     O_R   0.425720 0.485350 0.344280 -0.512122
O8    O     O_R   0.574280 0.514650 0.655720 -0.514542
O9    O     O_2   0.197298 0.257115 0.494146 -0.504244
O10   O     O_2   0.800728 0.738464 0.480587 -0.482186
O11   O     O_2   0.790000 0.194442 0.397781 -0.478482
O12   O     O_2   0.208651 0.800977 0.572469 -0.473298
S1    S     S_3+6 0.334987 0.252734 0.209858 0.050981
O13   O     O_2   0.365866 0.300934 0.071079 -0.246356
O14   O     O_2   0.362324 0.158826 0.322752 -0.260843
O15   O     O_3   0.284988 0.142467 0.094025 -0.491404
H13   H     H_    0.271486 0.087311 0.184782 0.372325
S2    S     S_3+6 0.667300 0.735926 0.797844 0.054976
O16   O     O_2   0.642558 0.840666 0.692987 -0.247684
O17   O     O_2   0.634906 0.684632 0.930342 -0.253123
O18   O     O_3   0.718317 0.834807 0.920000 -0.510856
H14   H     H_    0.707632 0.928754 0.996973 0.389118
N5    N     N_3   0.625781 0.281689 0.202236 -0.450888
H15   H     H_    0.643081 0.217946 0.096775 0.270806
H16   H     H_    0.608008 0.200725 0.265133 0.248414
N6    N     N_3   0.369108 0.717186 0.797814 -0.528256
H17   H     H_    0.395080 0.778285 0.738849 0.232681
H18   H     H_    0.386195 0.650687 0.880171 0.288722
N7    N     N_3   0.862347 0.050181 0.276699 -0.487670
H19   H     H_    0.844543 0.055975 0.148410 0.249722
H20   H     H_    0.884604 0.960850 0.248923 0.205375
N8    N     N_3   0.135741 0.945880 0.686228 -0.486535
H21   H     H_    0.152971 0.940252 0.815536 0.246977
H22   H     H_    0.113451 0.035275 0.712297 0.204907
S3    S     S_3+6 0.453485 0.933126 0.223961 0.038218
O19   O     O_2   0.484150 0.842822 0.093443 -0.272613
O20   O     O_2   0.414410 0.824488 0.271723 -0.295353
O21   O     O_3   0.427266 0.056085 0.111584 -0.460009
H23   H     H_    0.402956 0.990073 0.015808 0.392831
S4    S     S_3+6 0.549299 0.066243 0.770374 0.064179
O22   O     O_2   0.573042 0.956358 0.870106 -0.181587
O23   O     O_2   0.588006 0.173720 0.718744 -0.268533
O24   O     O_3   0.516510 0.168969 0.920035 -0.458853
H24   H     H_    0.482920 0.118940 0.883987 0.349742

loop_
_geom_bond_atom_site_label_1
_geom_bond_atom_site_label_2
_ccdc_geom_bond_type
C8    C26   A    
S1    O13   D    
C14   C18   A    
C27   S3    S    
S3    O19   D    
C34   C42   A    
C32   N2    A    
C42   N2    S    
O18   H14   S    
S3    O21   S    
C39   C41   A    
C21   N7    S    
C33   H8    S    
C34   H7    S    
C19   C21   A    
C35   N6    S    
S2    O17   D    
C9    C22   A    
C36   N5    S    
C3    C18   A    
C40   H4    S    
C23   O7    A    
C11   C37   A    
N8    H21   S    
Cu2   O6    S    
Cu1   O8    S    
C12   C36   A    
C29   O9    S    
C24   O6    A    
C28   S4    S    
C40   C42   A    
C19   H9    S    
N3    N4    D    
Cu2   O3    S    
S1    O14   D    
C1    O3    A    
S4    O23   D    
C30   O10   S    
C2    O4    A    
Cu1   O4    S    
C32   O11   S    
C5    C29   A    
C10   C21   A    
C13   C19   A    
N6    H18   S    
C14   C20   A    
O15   H13   S    
C7    H5    S    
C20   H10   S    
C5    C7    A    
C9    C31   A    
S2    O16   D    
C15   C26   A    
C6    C8    A    
C38   S2    S    
Cu2   O2    S    
C6    C30   A    
S4    O24   S    
C1    O1    A    
Cu1   Cu2   S    
C3    C9    A    
N5    H15   S    
Cu1   O5    S    
N8    H22   S    
Cu1   N4    S    
C4    C17   A    
C4    C6    A    
C31   O12   S    
N5    H16   S    
C20   C22   A    
S1    O15   S    
N7    H20   S    
C4    C10   A    
C8    H6    S    
O24   H24   S    
Cu1   O1    S    
C39   H3    S    
C16   C25   A    
C15   C17   A    
C37   S1    S    
H1    N3    S    
H2    N4    S    
N6    H17   S    
C25   H11   S    
C29   N1    A    
C3    C5    A    
C26   H12   S    
S3    O20   D    
C12   C24   S    
C7    C25   A    
C13   C17   A    
C33   C41   A    
C31   N1    A    
C11   C35   A    
C41   N1    S    
C37   C39   A    
C38   C40   A    
S2    O18   S    
C23   O5    A    
C30   N2    A    
C11   C23   S    
S4    O22   D    
C33   C35   A    
C34   C36   A    
C12   C38   A    
C24   O8    A    
C10   C32   A    
C16   C18   A    
O21   H23   S    
C13   C16   A    
C27   C28   D    
C1    C27   S    
C22   N8    S    
C14   C15   A    
Cu2   O7    S    
C2    C28   S    
Cu2   N3    S    
N7    H19   S    
C2    O2    A    
