data_str_m3_o5_o29_f0_pcu.sym.99
_audit_creation_date              2013-03-05T16:48:45-0500
_audit_creation_method            fapswitch 2.2
_symmetry_space_group_name_H-M    P1
_symmetry_Int_Tables_number       1
_space_group_crystal_system       triclinic
_cell_length_a                    27.595123
_cell_length_b                    8.923319
_cell_length_c                    8.108882
_cell_angle_alpha                 90.001336
_cell_angle_beta                  89.997947
_cell_angle_gamma                 90.528207
_cell_volume                      1996.64694457

loop_
_atom_site_label
_atom_site_type_symbol
_atom_site_description
_atom_site_fract_x
_atom_site_fract_y
_atom_site_fract_z
_atom_type_partial_charge
O1    O     O_R   0.500000 0.285350 0.636850 -0.615837
O2    O     O_R   0.500000 0.714650 0.363150 -0.617694
O3    O     O_R   0.500000 0.714650 0.636850 -0.615834
O4    O     O_R   0.500000 0.285350 0.363150 -0.617705
C1    C     C_R   0.499960 0.218021 0.499997 0.937051
C2    C     C_R   0.500040 0.781979 0.499999 0.937066
O5    O     O_R   0.428760 0.500000 0.636860 -0.622683
O6    O     O_R   0.571240 0.500000 0.363140 -0.620868
O7    O     O_R   0.571240 0.500000 0.636860 -0.622701
O8    O     O_R   0.428760 0.500000 0.363140 -0.620874
C3    C     C_R   0.405737 0.496496 0.499617 0.923125
C4    C     C_R   0.594263 0.503483 0.499614 0.923147
Zn1   Zn    Zn3+2 0.500000 0.500000 0.682780 0.986398
Zn2   Zn    Zn3+2 0.500000 0.500000 0.317220 0.984205
C5    C     C_R   0.174869 0.341946 0.445882 0.501646
C6    C     C_R   0.825155 0.657530 0.446175 0.501731
C7    C     C_R   0.180443 0.606880 0.407509 0.566387
C8    C     C_R   0.819569 0.392591 0.407845 0.566156
O9    O     O_2   0.196936 0.210410 0.476281 -0.576099
O10   O     O_2   0.803094 0.789075 0.476599 -0.576046
O11   O     O_2   0.208154 0.731659 0.393282 -0.546697
O12   O     O_2   0.791853 0.267820 0.393653 -0.546597
N1    N     N_R   0.201512 0.471769 0.438646 -0.320256
N2    N     N_R   0.798504 0.527722 0.438934 -0.320234
C9    C     C_R   0.273668 0.534182 0.603908 0.468429
C10   C     C_R   0.726305 0.465434 0.604036 0.468410
C11   C     C_R   0.281717 0.396431 0.344489 0.468737
C12   C     C_R   0.718332 0.603156 0.344581 0.468865
C13   C     C_R   0.324063 0.539822 0.619132 -0.319731
C14   C     C_R   0.675908 0.459931 0.619186 -0.319736
C15   C     C_R   0.332050 0.407095 0.359320 -0.355598
C16   C     C_R   0.667992 0.592630 0.359337 -0.355752
C17   C     C_R   0.252723 0.466181 0.463584 0.147565
C18   C     C_R   0.747289 0.533365 0.463744 0.147631
C19   C     C_R   0.101842 0.484417 0.401508 -0.051997
C20   C     C_R   0.898173 0.515029 0.401751 -0.051874
C21   C     C_R   0.124581 0.345638 0.425798 -0.035861
C22   C     C_R   0.875441 0.653818 0.426055 -0.035937
C23   C     C_R   0.130139 0.616150 0.390995 -0.064614
C24   C     C_R   0.869872 0.383300 0.391311 -0.064607
C25   C     C_R   0.096656 0.214567 0.434117 -0.151072
C26   C     C_R   0.903369 0.784883 0.434324 -0.151186
C27   C     C_R   0.107765 0.753497 0.362756 -0.145030
C28   C     C_R   0.892240 0.245942 0.363069 -0.145108
C29   C     C_R   0.353196 0.479561 0.495048 -0.144721
C30   C     C_R   0.646808 0.520259 0.495060 -0.144714
C31   C     C_R   0.971799 0.366040 0.379076 0.045416
C32   C     C_R   0.028212 0.633394 0.378978 0.045422
C33   C     C_R   0.977224 0.641656 0.393154 0.043381
C34   C     C_R   0.022791 0.357780 0.393110 0.043390
C35   C     C_R   0.949212 0.507677 0.390093 0.077154
C36   C     C_R   0.050801 0.491760 0.389959 0.077204
C37   C     C_R   0.942393 0.237211 0.357075 -0.216369
C38   C     C_R   0.057612 0.762221 0.356869 -0.216401
C39   C     C_R   0.953364 0.779187 0.417657 -0.216554
C40   C     C_R   0.046658 0.220253 0.417555 -0.216615
C41   C     C_1   0.499985 0.065214 0.499991 -0.193408
C42   C     C_1   0.500014 0.934786 0.499995 -0.193414
N3    N     N_1   0.500000 0.500000 0.073640 -0.037234
N4    N     N_1   0.500000 0.500000 0.926360 -0.036288
H1    H     H_    0.354785 0.362150 0.262779 0.172121
H2    H     H_    0.645284 0.637634 0.262763 0.172075
H3    H     H_    0.340270 0.598410 0.722684 0.182559
H4    H     H_    0.659671 0.401415 0.722735 0.182589
O13   O     O_3   0.259806 0.335452 0.205415 -0.662178
C43   C     C_3   0.276638 0.188890 0.174222 0.092439
H5    H     H_    0.282272 0.124411 0.290589 0.182124
H6    H     H_    0.311186 0.194779 0.103850 0.131252
C44   C     C_3   0.238982 0.105224 0.069884 -0.320825
H7    H     H_    0.204048 0.099523 0.137992 0.250449
H8    H     H_    0.232991 0.167018 0.952782 0.223893
C45   C     C_3   0.255228 0.946398 0.029452 -0.872354
H9    H     H_    0.289590 0.949308 0.958152 0.260464
H10   H     H_    0.226983 0.889427 0.953984 0.283585
H11   H     H_    0.260675 0.881110 0.144457 0.289070
O14   O     O_3   0.740288 0.664098 0.205564 -0.662197
C46   C     C_3   0.723450 0.810619 0.174179 0.092336
H12   H     H_    0.717637 0.875063 0.290471 0.181826
H13   H     H_    0.688996 0.804616 0.103286 0.131337
C47   C     C_3   0.761220 0.894441 0.070457 -0.320850
H14   H     H_    0.796054 0.900282 0.139145 0.250612
H15   H     H_    0.767409 0.832676 0.953455 0.223917
C48   C     C_3   0.744965 0.053204 0.029766 -0.871923
H16   H     H_    0.710748 0.050141 0.957669 0.260589
H17   H     H_    0.773329 0.110382 0.954998 0.283410
H18   H     H_    0.739251 0.118395 0.144687 0.288885
O15   O     O_3   0.245461 0.615568 0.712087 -0.621462
C49   C     C_3   0.232969 0.528131 0.851622 0.097864
H19   H     H_    0.236064 0.602452 0.961119 0.200866
H20   H     H_    0.257941 0.432720 0.875215 0.136323
C50   C     C_3   0.180528 0.470442 0.835618 -0.368906
H21   H     H_    0.159141 0.548216 0.757823 0.246637
H22   H     H_    0.180603 0.358631 0.775996 0.219426
C51   C     C_3   0.155145 0.456449 0.001712 -0.893547
H23   H     H_    0.174923 0.378646 0.083377 0.292527
H24   H     H_    0.117795 0.412082 0.983600 0.261956
H25   H     H_    0.152837 0.568330 0.060593 0.269278
O16   O     O_3   0.754472 0.384032 0.712305 -0.621427
C52   C     C_3   0.767004 0.471554 0.851738 0.098120
H26   H     H_    0.763766 0.397444 0.961361 0.200885
H27   H     H_    0.742143 0.567311 0.875025 0.136127
C53   C     C_3   0.819520 0.528612 0.835879 -0.368884
H28   H     H_    0.840836 0.450537 0.758215 0.246698
H29   H     H_    0.819605 0.640390 0.776183 0.219310
C54   C     C_3   0.844864 0.542414 0.002052 -0.893474
H30   H     H_    0.825172 0.620578 0.083553 0.292498
H31   H     H_    0.882282 0.586244 0.984034 0.261934
H32   H     H_    0.846989 0.430550 0.061056 0.269302
H33   H     H_    0.113275 0.106947 0.455872 0.183100
H34   H     H_    0.886756 0.892508 0.456101 0.183063
H35   H     H_    0.128944 0.855261 0.347001 0.187538
H36   H     H_    0.871058 0.144179 0.347371 0.187514
H37   H     H_    0.957283 0.128487 0.331659 0.133669
H38   H     H_    0.042715 0.870937 0.331462 0.133682
H39   H     H_    0.972730 0.883557 0.432719 0.129801
H40   H     H_    0.027297 0.115879 0.432659 0.129807

loop_
_geom_bond_atom_site_label_1
_geom_bond_atom_site_label_2
_geom_bond_distance
_ccdc_geom_bond_type
C43   H6    1.111902 S    
O15   C49   1.415228 S    
C13   H3    1.083565 S    
C14   H4    1.083565 S    
C2    C42   1.363551 S    
C19   C23   1.407789 A    
O3    C2    1.261912 A    
Zn1   N4    1.975161 S    
C46   H12   1.116837 S    
C11   C17   1.403305 A    
C32   C38   1.412316 A    
Zn2   N3    1.975161 S    
C54   H31   1.110431 S    
C7    N1    1.366859 A    
O1    C1    1.261905 A    
C19   C21   1.407274 A    
C22   C26   1.396293 A    
C32   C36   1.417156 A    
C47   C48   1.526055 S    
C43   C44   1.529293 S    
C9    O15   1.383145 S    
C53   C54   1.522644 S    
C7    C23   1.397797 A    
C44   H8    1.111200 S    
C15   H1    1.082520 S    
C5    C21   1.397918 A    
C20   C24   1.407787 A    
O7    Zn1   2.000815 S    
C5    O9    1.349980 S    
C28   C37   1.387728 A    
C10   C18   1.410830 A    
C48   H16   1.110699 S    
N1    C17   1.428893 S    
C34   C36   1.417881 A    
O3    Zn1   1.951272 S    
C6    O10   1.349985 S    
C31   C37   1.412318 A    
C5    N1    1.367588 A    
C43   H5    1.116822 S    
C12   C18   1.403323 A    
N3    N4    1.194275 T    
C6    N2    1.367583 A    
C25   H33   1.082483 S    
C21   C25   1.396302 A    
O2    C2    1.261878 A    
C27   H35   1.082901 S    
C45   H11   1.110551 S    
C37   H37   1.076982 S    
O5    C3    1.281728 A    
C31   C34   1.414336 A    
C46   H13   1.111938 S    
C9    C13   1.396590 A    
C54   H32   1.108995 S    
C11   C15   1.396532 A    
C53   H28   1.111524 S    
C12   C16   1.396577 A    
O14   C46   1.414682 S    
C45   H9    1.110657 S    
C4    C30   1.456781 S    
O8    Zn2   2.000818 S    
C50   H21   1.111520 S    
C47   H14   1.111778 S    
C31   C35   1.417162 A    
C51   H25   1.109000 S    
C33   C35   1.417875 A    
C33   C39   1.412084 A    
C34   C40   1.412094 A    
C13   C29   1.398478 A    
C44   C45   1.526035 S    
C53   H29   1.108687 S    
C25   C40   1.387621 A    
C11   O13   1.388312 S    
C26   C39   1.387610 A    
C50   H22   1.108698 S    
C27   C38   1.387719 A    
C52   H26   1.111046 S    
C49   C50   1.536968 S    
O5    Zn1   2.000844 S    
O6    C4    1.276310 A    
C48   H18   1.110553 S    
C40   H40   1.076437 S    
C51   H23   1.106989 S    
C51   H24   1.110437 S    
C20   C35   1.413725 A    
C10   O16   1.383128 S    
C28   H36   1.082899 S    
C45   H10   1.110490 S    
C32   C33   1.414315 A    
C48   H17   1.110467 S    
C49   H20   1.116767 S    
C10   C14   1.396544 A    
C8    N2    1.366860 A    
C3    C29   1.456799 S    
O1    Zn1   1.951256 S    
C12   O14   1.388330 S    
C46   C47   1.529312 S    
O6    Zn2   2.000841 S    
C52   H27   1.116790 S    
C8    O12   1.349851 S    
C16   C30   1.401079 A    
C14   C30   1.398488 A    
O4    C1    1.261886 A    
C23   C27   1.396308 A    
C54   H30   1.107011 S    
C1    C41   1.363551 S    
C20   C22   1.407274 A    
C26   H34   1.082480 S    
C16   H2    1.082534 S    
C50   C51   1.522666 S    
C41   C42   1.163865 T    
C39   H39   1.076439 S    
C38   H38   1.076991 S    
C47   H15   1.111198 S    
O13   C43   1.414679 S    
O4    Zn2   1.951273 S    
C44   H7    1.111743 S    
O2    Zn2   1.951255 S    
O7    C4    1.281710 A    
N2    C18   1.428880 S    
O8    C3    1.276298 A    
C24   C28   1.396309 A    
C52   C53   1.536976 S    
C8    C24   1.397813 A    
C49   H19   1.111039 S    
O16   C52   1.415236 S    
C15   C29   1.401077 A    
C6    C22   1.397902 A    
C19   C36   1.413721 A    
C9    C17   1.410875 A    
C7    O11   1.349850 S    
