data_str_m9_o16_o20_f0_sra.sym.31
_audit_creation_date              2012-12-11T15:10:44-0500
_audit_creation_method            fapswitch 2.2
_symmetry_space_group_name_H-M    P1
_symmetry_Int_Tables_number       1
_space_group_crystal_system       triclinic
_cell_length_a                    21.152925
_cell_length_b                    7.231875
_cell_length_c                    18.453275
_cell_angle_alpha                 90.003705
_cell_angle_beta                  92.808283
_cell_angle_gamma                 90.005156
_cell_volume                      2819.50532175

loop_
_atom_site_label
_atom_site_type_symbol
_atom_type_description
_atom_site_fract_x
_atom_site_fract_y
_atom_site_fract_z
_atom_type_partial_charge
O1    O     O_R   0.448880 0.506250 0.415280 -0.526521
O2    O     O_R   0.551120 0.006250 0.584720 -0.526524
O3    O     O_R   0.434830 0.174000 0.557310 -0.523019
O4    O     O_R   0.565170 0.674000 0.442690 -0.523016
C1    C     C_R   0.418419 0.344343 0.581481 0.695526
C2    C     C_R   0.581588 0.844347 0.418528 0.695506
O5    O     O_R   0.441680 0.176440 0.414130 -0.539538
O6    O     O_R   0.558320 0.676440 0.585870 -0.539589
O7    O     O_R   0.558020 0.007570 0.440520 -0.518425
O8    O     O_R   0.441980 0.507570 0.559480 -0.518442
C3    C     C_R   0.425618 0.345267 0.390584 0.664307
C4    C     C_R   0.574388 0.845291 0.609408 0.664291
O9    O     O_3   0.538160 0.339670 0.508820 -0.364993
O10   O     O_3   0.461840 0.839670 0.491180 -0.364964
V1    V     V_3+5 0.492920 0.064260 0.498360 1.407310
V2    V     V_3+5 0.507080 0.564260 0.501640 1.407205
C5    C     C_R   0.885253 0.927299 0.690380 -0.155966
C6    C     C_R   0.114838 0.429313 0.309646 -0.155949
H1    H     H_    0.970686 0.962302 0.755792 0.104767
H2    H     H_    0.029415 0.464462 0.244232 0.104788
H3    H     H_    0.815438 0.864658 0.575120 0.137921
H4    H     H_    0.184653 0.367284 0.424983 0.137878
H5    H     H_    0.910506 0.927942 0.640662 0.110737
H6    H     H_    0.089616 0.430944 0.359394 0.110722
C7    C     C_R   0.889204 0.939833 0.820908 -0.030168
C8    C     C_R   0.110828 0.440010 0.179075 -0.030187
C9    C     C_R   0.584684 0.872915 0.740382 -0.142464
C10   C     C_R   0.415325 0.371924 0.259562 -0.142506
C11   C     C_R   0.617167 0.898018 0.806552 -0.126208
C12   C     C_R   0.382843 0.396539 0.193361 -0.126143
C13   C     C_R   0.682705 0.908034 0.810824 -0.143212
C14   C     C_R   0.317308 0.406886 0.189093 -0.143212
C15   C     C_R   0.718491 0.888660 0.748553 0.063458
C16   C     C_R   0.281526 0.388379 0.251409 0.063433
C17   C     C_R   0.685389 0.856397 0.679275 0.005345
C18   C     C_R   0.314624 0.356626 0.320723 0.005380
C19   C     C_R   0.786277 0.903680 0.753515 0.073350
C20   C     C_R   0.213751 0.403809 0.246463 0.073344
C21   C     C_R   0.819377 0.902149 0.688852 0.092745
C22   C     C_R   0.180683 0.403461 0.311165 0.092791
C23   C     C_R   0.787640 0.867830 0.622721 -0.182583
C24   C     C_R   0.212418 0.369605 0.377336 -0.182613
C25   C     C_R   0.722632 0.829088 0.617238 0.076832
C26   C     C_R   0.277378 0.330168 0.382810 0.076998
C27   C     C_R   0.822957 0.920087 0.820203 -0.207280
C28   C     C_R   0.177054 0.419572 0.179762 -0.207316
C29   C     C_R   0.919740 0.946478 0.755822 -0.159010
C30   C     C_R   0.080339 0.447984 0.244186 -0.158995
C31   C     C_R   0.616735 0.853958 0.676280 -0.081429
C32   C     C_R   0.383274 0.353795 0.323704 -0.081408
H7    H     H_    0.802088 0.913587 0.872244 0.091141
H8    H     H_    0.197895 0.412113 0.127713 0.091178
H9    H     H_    0.533375 0.870959 0.739051 0.104407
H10   H     H_    0.466633 0.369648 0.260881 0.104394
H11   H     H_    0.703947 0.934980 0.863976 0.107312
H12   H     H_    0.296064 0.433432 0.135910 0.107305
H13   H     H_    0.591051 0.913954 0.855187 0.118202
H14   H     H_    0.408959 0.411810 0.144690 0.118189
C33   C     C_1   0.864176 0.938996 0.131671 -0.208926
C34   C     C_1   0.135830 0.439005 0.868335 -0.208934
C35   C     C_1   0.821026 0.924998 0.175054 -0.003661
C36   C     C_1   0.178984 0.425008 0.824957 -0.003668
C37   C     C_1   0.770066 0.905947 0.226664 -0.004199
C38   C     C_1   0.229948 0.405956 0.773353 -0.004204
C39   C     C_1   0.727157 0.889367 0.270220 -0.005982
C40   C     C_1   0.272860 0.389374 0.729801 -0.005992
C41   C     C_1   0.676273 0.870273 0.321902 -0.005467
C42   C     C_1   0.323746 0.370275 0.678123 -0.005508
C43   C     C_1   0.633389 0.856052 0.365602 -0.196389
C44   C     C_1   0.366627 0.356047 0.634419 -0.196353
O11   O     O_R   0.058070 0.289240 0.940580 -0.520258
O12   O     O_R   0.941930 0.789240 0.059420 -0.520256
O13   O     O_R   0.058330 0.616740 0.085880 -0.534512
O14   O     O_R   0.941670 0.116740 0.914120 -0.534513
C45   C     C_R   0.072109 0.448546 0.110881 0.682605
C46   C     C_R   0.927901 0.948522 0.889113 0.682610
O15   O     O_R   0.065180 0.619040 0.942700 -0.523278
O16   O     O_R   0.934820 0.119040 0.057300 -0.523271
O17   O     O_R   0.948870 0.787780 0.915270 -0.531138
O18   O     O_R   0.051130 0.287780 0.084730 -0.531143
C47   C     C_R   0.083289 0.450340 0.920303 0.705226
C48   C     C_R   0.916712 0.950336 0.079698 0.705235
O19   O     O_3   0.961870 0.453310 0.991210 -0.366436
O20   O     O_3   0.038130 0.953310 0.008790 -0.366448
V3    V     V_3+5 0.007070 0.728770 0.001630 1.417629
V4    V     V_3+5 0.992930 0.228770 0.998370 1.417620
C49   C     C_3   0.694756 0.752637 0.546103 -0.325553
C50   C     C_3   0.741404 0.680962 0.491506 -0.774113
H15   H     H_    0.766540 0.797523 0.466320 0.224759
H16   H     H_    0.775891 0.583561 0.518102 0.229467
H17   H     H_    0.715033 0.604635 0.447437 0.225950
H18   H     H_    0.665479 0.630965 0.558517 0.201878
H19   H     H_    0.666267 0.863828 0.519914 0.159979
C51   C     C_3   0.305186 0.253875 0.453992 -0.325876
C52   C     C_3   0.258454 0.182422 0.508543 -0.773868
H20   H     H_    0.233423 0.299121 0.533771 0.224725
H21   H     H_    0.223875 0.085346 0.481893 0.229505
H22   H     H_    0.284736 0.105782 0.552588 0.225888
H23   H     H_    0.334437 0.132096 0.441653 0.201688
H24   H     H_    0.333705 0.365073 0.480158 0.160092

loop_
_geom_bond_atom_site_label_1
_geom_bond_atom_site_label_2
_ccdc_geom_bond_type
C2    C43   S    
C40   C42   S    
C49   C50   S    
C37   C39   T    
C9    C11   A    
C23   C25   A    
C49   H19   S    
C52   H20   S    
O1    C3    A    
C33   C48   S    
O2    C4    A    
C2    O7    A    
O12   V3    S    
C52   H22   S    
O3    V1    S    
C21   C23   A    
O5    C3    A    
C5    H5    S    
O14   C46   A    
C6    H6    S    
H1    C29   S    
C27   H7    S    
C28   H8    S    
C34   C36   T    
C5    C21   A    
C35   C37   S    
C6    C22   A    
O18   V4    S    
C10   C32   A    
C39   C41   S    
C17   C31   A    
C36   C38   S    
C13   C15   A    
C51   H24   S    
C12   C14   A    
C17   C25   A    
C45   O18   A    
C7    C29   A    
C8    C30   A    
O16   V4    S    
O5    V1    S    
O15   V3    S    
O6    V2    S    
C49   H18   S    
O13   C45   A    
C24   C26   A    
C4    C31   S    
C33   C35   T    
O20   V3    S    
O4    C2    A    
C10   H10   S    
C15   C19   A    
C41   C43   T    
C14   C16   A    
O4    V2    S    
C1    C44   S    
O11   V4    S    
C34   C47   S    
O16   C48   A    
C50   H17   S    
O15   C47   A    
O6    C4    A    
O19   V4    S    
C52   H21   S    
C8    C45   S    
O1    V2    S    
O14   V4    S    
O2    V1    S    
O13   V3    S    
H2    C30   S    
H3    C23   S    
C42   C44   T    
C11   H13   S    
C18   C26   A    
C19   C27   A    
C7    C27   A    
O17   V3    S    
C18   C32   A    
C16   C20   A    
C5    C29   A    
C50   H16   S    
O3    C1    A    
C6    C30   A    
C9    H9    S    
C7    C46   S    
C25   C49   S    
C10   C12   A    
O7    V1    S    
C1    O8    A    
C11   C13   A    
C3    C32   S    
O8    V2    S    
C20   C22   A    
H4    C24   S    
C51   H23   S    
C12   H14   S    
C22   C24   A    
C15   C17   A    
C16   C18   A    
C51   C52   S    
C20   C28   A    
C26   C51   S    
C8    C28   A    
C46   O17   A    
C50   H15   S    
C19   C21   A    
O9    V2    S    
O10   V1    S    
C13   H11   S    
C14   H12   S    
O12   C48   A    
C9    C31   A    
C38   C40   T    
O11   C47   A    
