data_str_m4_o4_o11_f0_acs.sym.49
_audit_creation_date              2012-12-11T15:41:21-0500
_audit_creation_method            fapswitch 2.2
_symmetry_space_group_name_H-M    P1
_symmetry_Int_Tables_number       1
_space_group_crystal_system       triclinic
_cell_length_a                    19.103181
_cell_length_b                    10.936696
_cell_length_c                    18.804986
_cell_angle_alpha                 90.014854
_cell_angle_beta                  90.241751
_cell_angle_gamma                 90.317074
_cell_volume                      3928.74925916

loop_
_atom_site_label
_atom_site_type_symbol
_atom_type_description
_atom_site_fract_x
_atom_site_fract_y
_atom_site_fract_z
_atom_type_partial_charge
C1    C     C_R   0.710107 0.999116 0.861340 0.556635
C2    C     C_R   0.301654 0.464380 0.038055 0.001192
C3    C     C_R   0.762579 0.855757 0.356222 0.548251
C4    C     C_2   0.485718 0.167966 0.913121 -0.114145
C5    C     C_2   0.454786 0.178347 0.066498 -0.108659
C6    C     C_2   0.985717 0.667966 0.913121 -0.114145
C7    C     C_2   0.954786 0.678347 0.066498 -0.108660
C8    C     C_2   0.471419 0.074840 0.032265 -0.162321
C9    C     C_2   0.490697 0.071116 0.956432 -0.171681
C10   C     C_2   0.971418 0.574839 0.032265 -0.162321
C11   C     C_2   0.990697 0.571116 0.956432 -0.171681
C12   C     C_R   0.767658 0.451583 0.066133 0.012427
C13   C     C_R   0.200616 0.984940 0.958453 0.011031
C14   C     C_R   0.224395 0.470259 0.935278 0.006964
C15   C     C_R   0.267658 0.951583 0.066133 0.012427
C16   C     C_R   0.724395 0.970259 0.935278 0.006964
C17   C     C_3   0.613565 0.357804 0.087910 -0.270206
C18   C     C_3   0.642310 0.235524 0.060826 -0.419455
C19   C     C_3   0.397289 0.616258 0.924822 -0.265007
C20   C     C_3   0.436887 0.496694 0.914754 -0.420488
C21   C     C_3   0.113566 0.857802 0.087911 -0.270207
C22   C     C_3   0.142311 0.735523 0.060826 -0.419458
C23   C     C_3   0.897289 0.116257 0.924822 -0.265006
C24   C     C_R   0.801654 0.964380 0.038055 0.001192
C25   C     C_3   0.936887 0.996694 0.914754 -0.420488
C26   C     C_R   0.819536 0.417029 0.949933 -0.161458
C27   C     C_R   0.180552 0.402062 0.048691 -0.158107
C28   C     C_R   0.319536 0.917030 0.949933 -0.161458
C29   C     C_R   0.680552 0.902062 0.048691 -0.158107
C30   C     C_R   0.825319 0.419920 0.023887 -0.169182
C31   C     C_R   0.170238 0.422844 0.976872 -0.167227
C32   C     C_R   0.325319 0.919921 0.023887 -0.169182
C33   C     C_R   0.276909 0.965625 0.142625 0.536575
C34   C     C_R   0.670238 0.922844 0.976872 -0.167227
C35   C     C_3   0.631783 0.472864 0.043812 -0.130846
C36   C     C_3   0.330950 0.606819 0.971324 -0.105919
C37   C     C_3   0.131782 0.972863 0.043812 -0.130846
C38   C     C_3   0.830950 0.106818 0.971324 -0.105919
C39   C     C_3   0.623495 0.462374 0.963202 -0.243188
C40   C     C_3   0.344272 0.577707 0.049110 -0.258745
C41   C     C_3   0.123494 0.962371 0.963203 -0.243188
C42   C     C_3   0.844272 0.077706 0.049110 -0.258746
C43   C     C_R   0.753675 0.432441 0.917566 0.010765
C44   C     C_R   0.210107 0.499116 0.861340 0.556635
C45   C     C_R   0.246556 0.422912 0.080258 0.008401
C46   C     C_R   0.253675 0.932441 0.917566 0.010765
C47   C     C_R   0.746556 0.922912 0.080258 0.008401
C48   C     C_R   0.483661 0.170547 0.431536 0.020009
C49   C     C_R   0.491095 0.170122 0.579265 0.019909
C50   C     C_R   0.983661 0.670547 0.431536 0.020009
C51   C     C_R   0.991095 0.670122 0.579265 0.019909
C52   C     C_R   0.474805 0.278025 0.469929 0.043705
C53   C     C_R   0.477719 0.278933 0.542332 0.028956
C54   C     C_R   0.974805 0.778025 0.469929 0.043705
C55   C     C_R   0.776909 0.465624 0.142625 0.536575
C56   C     C_R   0.977719 0.778933 0.542332 0.028956
C57   C     C_R   0.485958 0.058672 0.542641 -0.171789
C58   C     C_R   0.484391 0.058953 0.468380 -0.167159
C59   C     C_R   0.985958 0.558672 0.542641 -0.171789
C60   C     C_R   0.984391 0.558953 0.468380 -0.167159
C61   C     C_R   0.527635 0.177196 0.848849 0.537749
C62   C     C_R   0.438782 0.182196 0.142217 0.568542
C63   C     C_R   0.027635 0.677196 0.848849 0.537749
C64   C     C_R   0.938782 0.682196 0.142217 0.568542
C65   C     C_3   0.511607 0.397591 0.461759 -0.278881
C66   C     C_R   0.708032 0.495143 0.031428 0.050122
C67   C     C_3   0.514721 0.401072 0.541830 -0.267576
C68   C     C_3   0.011607 0.897591 0.461759 -0.278881
C69   C     C_3   0.014721 0.901072 0.541830 -0.267575
C70   C     C_R   0.749547 0.411680 0.421648 0.013378
C71   C     C_R   0.249125 0.400389 0.580524 0.015906
C72   C     C_R   0.249547 0.911680 0.421648 0.013378
C73   C     C_R   0.749125 0.900389 0.580524 0.015906
C74   C     C_R   0.785183 0.316974 0.455709 0.018312
C75   C     C_R   0.200839 0.329110 0.542163 0.021788
C76   C     C_R   0.285183 0.816974 0.455709 0.018312
C77   C     C_R   0.290354 0.489754 0.966401 0.043672
C78   C     C_R   0.700839 0.829110 0.542163 0.021788
C79   C     C_R   0.783603 0.307443 0.528537 0.045560
C80   C     C_R   0.205410 0.319454 0.469621 0.033162
C81   C     C_R   0.283603 0.807442 0.528537 0.045560
C82   C     C_R   0.705410 0.819454 0.469621 0.033162
C83   C     C_R   0.701391 0.472342 0.536299 -0.171993
C84   C     C_R   0.313847 0.431221 0.471078 -0.151279
C85   C     C_R   0.201391 0.972342 0.536299 -0.171993
C86   C     C_R   0.813847 0.931221 0.471078 -0.151279
C87   C     C_R   0.702977 0.483171 0.462122 -0.164802
C88   C     C_R   0.208032 0.995143 0.031428 0.050121
C89   C     C_R   0.309836 0.440115 0.545478 -0.154312
C90   C     C_R   0.202977 0.983171 0.462122 -0.164802
C91   C     C_R   0.809836 0.940115 0.545478 -0.154312
C92   C     C_3   0.860325 0.278866 0.453172 -0.270510
C93   C     C_3   0.122563 0.334816 0.538405 -0.269629
C94   C     C_3   0.360325 0.778866 0.453172 -0.270509
C95   C     C_3   0.622563 0.834816 0.538405 -0.269629
C96   C     C_3   0.858875 0.273166 0.533444 -0.266896
C97   C     C_3   0.128221 0.323652 0.458612 -0.279253
C98   C     C_3   0.358875 0.773166 0.533444 -0.266896
C99   C     C_R   0.790354 0.989754 0.966401 0.043672
C100  C     C_3   0.628221 0.823652 0.458612 -0.279253
C101  C     C_R   0.745648 0.388811 0.570420 0.021289
C102  C     C_R   0.257941 0.379488 0.432077 0.019036
C103  C     C_R   0.245648 0.888811 0.570420 0.021289
C104  C     C_R   0.757941 0.879488 0.432077 0.019036
C105  C     C_R   0.738839 0.366642 0.851645 0.535906
C106  C     C_R   0.260998 0.366225 0.148411 0.544750
C107  C     C_R   0.238839 0.866642 0.851645 0.535906
C108  C     C_R   0.760998 0.866225 0.148411 0.544750
C109  C     C_R   0.728078 0.953166 0.648232 0.556945
C110  C     C_R   0.700616 0.484941 0.958453 0.011031
C111  C     C_R   0.272062 0.955441 0.352434 0.552578
C112  C     C_R   0.228078 0.453166 0.648232 0.556945
C113  C     C_R   0.772062 0.455441 0.352435 0.552578
C114  C     C_R   0.528217 0.176447 0.645944 0.550680
C115  C     C_R   0.468055 0.176511 0.356819 0.553072
C116  C     C_R   0.028217 0.676447 0.645944 0.550680
C117  C     C_R   0.968055 0.676512 0.356819 0.553072
C118  C     C_R   0.738795 0.359559 0.645276 0.548167
C119  C     C_R   0.262579 0.355757 0.356222 0.548251
C120  C     C_R   0.238795 0.859559 0.645276 0.548167
Cr1   Cr    Cr6+3 0.769260 0.163750 0.750730 0.993518
Cr2   Cr    Cr6+3 0.385810 0.322400 0.252290 1.001745
Cr3   Cr    Cr6+3 0.114190 0.822400 0.747710 0.997874
Cr4   Cr    Cr6+3 0.885810 0.822400 0.252290 1.001745
Cr5   Cr    Cr6+3 0.230740 0.163750 0.249270 1.001940
Cr6   Cr    Cr6+3 0.269260 0.663750 0.750730 0.993518
Cr7   Cr    Cr6+3 0.730740 0.663750 0.249270 1.001940
Cr8   Cr    Cr6+3 0.612640 0.009910 0.748780 1.001229
Cr9   Cr    Cr6+3 0.387360 0.009910 0.251220 1.001688
Cr10  Cr    Cr6+3 0.112640 0.509910 0.748780 1.001229
Cr11  Cr    Cr6+3 0.887360 0.509910 0.251220 1.001689
Cr12  Cr    Cr6+3 0.614190 0.322400 0.747710 0.997873
H1    H     H_    0.476791 0.990269 0.061859 0.137122
H2    H     H_    0.482425 0.475024 0.565188 0.121146
H3    H     H_    0.063746 0.887875 0.436408 0.141078
H4    H     H_    0.982425 0.975024 0.565188 0.121145
H5    H     H_    0.667689 0.531667 0.566841 0.122004
H6    H     H_    0.359049 0.467814 0.444115 0.125256
H7    H     H_    0.167689 0.031667 0.566841 0.122004
H8    H     H_    0.859049 0.967813 0.444115 0.125256
H9    H     H_    0.672524 0.554630 0.437449 0.138495
H10   H     H_    0.351284 0.485029 0.574806 0.116611
H11   H     H_    0.172524 0.054630 0.437449 0.138495
H12   H     H_    0.515377 0.988371 0.937714 0.130773
H13   H     H_    0.851284 0.985029 0.574806 0.116611
H14   H     H_    0.896028 0.350546 0.433279 0.163092
H15   H     H_    0.103108 0.425390 0.555026 0.169477
H16   H     H_    0.396028 0.850547 0.433279 0.163092
H17   H     H_    0.603108 0.925390 0.555026 0.169477
H18   H     H_    0.866813 0.188056 0.427686 0.126330
H19   H     H_    0.096955 0.254589 0.563882 0.128601
H20   H     H_    0.366813 0.688056 0.427686 0.126330
H21   H     H_    0.596955 0.754588 0.563882 0.128600
H22   H     H_    0.866939 0.180399 0.554816 0.136983
H23   H     H_    0.976790 0.490269 0.061859 0.137122
H24   H     H_    0.106370 0.236437 0.437689 0.132745
H25   H     H_    0.366939 0.680399 0.554816 0.136983
H26   H     H_    0.606370 0.736437 0.437689 0.132745
H27   H     H_    0.891039 0.345252 0.559521 0.135591
H28   H     H_    0.111424 0.407105 0.429578 0.138760
H29   H     H_    0.391039 0.845252 0.559521 0.135591
H30   H     H_    0.611424 0.907105 0.429578 0.138760
H31   H     H_    0.453123 0.265514 0.039517 0.088589
H32   H     H_    0.458432 0.249267 0.928948 0.100968
H33   H     H_    0.953124 0.765514 0.039517 0.088589
H34   H     H_    0.015377 0.488371 0.937714 0.130773
H35   H     H_    0.958432 0.749267 0.928948 0.100968
H36   H     H_    0.863847 0.384509 0.919740 0.135793
H37   H     H_    0.137123 0.365179 0.078896 0.138465
H38   H     H_    0.363847 0.884510 0.919740 0.135793
H39   H     H_    0.637123 0.865179 0.078896 0.138464
H40   H     H_    0.873868 0.390884 0.047879 0.135389
H41   H     H_    0.119588 0.402475 0.954024 0.125330
H42   H     H_    0.373868 0.890885 0.047879 0.135389
H43   H     H_    0.619589 0.902475 0.954024 0.125330
H44   H     H_    0.106237 0.056244 0.065226 0.129247
H45   H     H_    0.978134 0.970006 0.438537 0.132141
H46   H     H_    0.795559 0.185666 0.964484 0.140570
H47   H     H_    0.606237 0.556246 0.065226 0.129247
H48   H     H_    0.295559 0.685666 0.964484 0.140569
H49   H     H_    0.607257 0.371519 0.942943 0.167392
H50   H     H_    0.399544 0.556606 0.062772 0.141169
H51   H     H_    0.107257 0.871516 0.942944 0.167392
H52   H     H_    0.899544 0.056606 0.062772 0.141169
H53   H     H_    0.593640 0.539708 0.940070 0.118297
H54   H     H_    0.319026 0.643400 0.086038 0.123595
H55   H     H_    0.093639 0.039705 0.940070 0.118297
H56   H     H_    0.069295 0.897429 0.561615 0.175244
H57   H     H_    0.819026 0.143400 0.086038 0.123595
H58   H     H_    0.490878 0.972800 0.570604 0.116005
H59   H     H_    0.486876 0.973406 0.439935 0.117742
H60   H     H_    0.990878 0.472800 0.570604 0.116005
H61   H     H_    0.986877 0.473406 0.439935 0.117742
H62   H     H_    0.616598 0.207242 0.010509 0.150838
H63   H     H_    0.699642 0.239478 0.052932 0.148133
H64   H     H_    0.631193 0.163332 0.100784 0.154098
H65   H     H_    0.632331 0.372070 0.143279 0.165976
H66   H     H_    0.555948 0.351347 0.090315 0.170088
H67   H     H_    0.478134 0.470006 0.438537 0.132141
H68   H     H_    0.456035 0.461327 0.966526 0.135987
H69   H     H_    0.402682 0.427737 0.888457 0.172037
H70   H     H_    0.482583 0.513053 0.879730 0.142446
H71   H     H_    0.382182 0.650037 0.871392 0.188006
H72   H     H_    0.433288 0.685476 0.948475 0.122415
H73   H     H_    0.116597 0.707240 0.010510 0.150839
H74   H     H_    0.199642 0.739478 0.052930 0.148134
H75   H     H_    0.131196 0.663331 0.100785 0.154098
H76   H     H_    0.132332 0.872069 0.143279 0.165976
H77   H     H_    0.055949 0.851344 0.090317 0.170089
H78   H     H_    0.569295 0.397429 0.561615 0.175244
H79   H     H_    0.956035 0.961327 0.966525 0.135987
H80   H     H_    0.902682 0.927737 0.888457 0.172037
H81   H     H_    0.982583 0.013052 0.879730 0.142446
H82   H     H_    0.882182 0.150037 0.871392 0.188006
H83   H     H_    0.933288 0.185476 0.948475 0.122415
H84   H     H_    0.563746 0.387875 0.436408 0.141078
O1    O     O_R   0.784290 0.290360 0.830540 -0.550039
O2    O     O_R   0.456020 0.282110 0.333230 -0.516942
O3    O     O_R   0.043980 0.782110 0.666770 -0.524411
O4    O     O_R   0.956020 0.782110 0.333230 -0.516942
O5    O     O_R   0.679070 0.374030 0.674430 -0.506111
O6    O     O_R   0.320930 0.374030 0.325570 -0.507866
O7    O     O_R   0.179070 0.874030 0.674430 -0.506111
O8    O     O_R   0.820930 0.874030 0.325570 -0.507866
O9    O     O_3   0.665360 0.165350 0.749070 -0.259001
O10   O     O_3   0.334640 0.165350 0.250930 -0.264768
O11   O     O_3   0.165360 0.665350 0.749070 -0.259001
O12   O     O_R   0.215710 0.290360 0.169460 -0.524711
O13   O     O_3   0.834640 0.665350 0.250930 -0.264767
O14   O     O_R   0.762610 0.041070 0.825230 -0.502430
O15   O     O_R   0.237390 0.041070 0.174770 -0.502551
O16   O     O_R   0.262610 0.541070 0.825230 -0.502430
O17   O     O_R   0.737390 0.541070 0.174770 -0.502551
O18   O     O_R   0.667390 0.924160 0.829970 -0.515918
O19   O     O_R   0.332610 0.924160 0.170030 -0.535292
O20   O     O_R   0.167390 0.424160 0.829970 -0.515918
O21   O     O_R   0.832610 0.424160 0.170030 -0.535292
O22   O     O_R   0.553980 0.081420 0.821780 -0.511718
O23   O     O_R   0.284290 0.790360 0.830540 -0.550039
O24   O     O_R   0.446020 0.081420 0.178220 -0.499457
O25   O     O_R   0.053980 0.581420 0.821780 -0.511718
O26   O     O_R   0.946020 0.581420 0.178220 -0.499457
O27   O     O_R   0.543210 0.283170 0.826740 -0.531793
O28   O     O_R   0.456790 0.283170 0.173260 -0.531044
O29   O     O_R   0.043210 0.783170 0.826740 -0.531793
O30   O     O_R   0.956790 0.783170 0.173260 -0.531044
O31   O     O_R   0.678350 0.375000 0.822720 -0.499998
O32   O     O_R   0.321650 0.375000 0.177280 -0.512036
O33   O     O_R   0.178350 0.875000 0.822720 -0.499998
O34   O     O_R   0.715710 0.790360 0.169460 -0.524711
O35   O     O_R   0.821650 0.875000 0.177280 -0.512036
O36   O     O_R   0.785060 0.289300 0.670580 -0.516997
O37   O     O_R   0.214940 0.289300 0.329420 -0.518333
O38   O     O_R   0.285060 0.789300 0.670580 -0.516997
O39   O     O_R   0.714940 0.789300 0.329420 -0.518333
O40   O     O_R   0.763330 0.040090 0.676940 -0.499388
O41   O     O_R   0.236670 0.040090 0.323060 -0.507189
O42   O     O_R   0.263330 0.540090 0.676940 -0.499388
O43   O     O_R   0.736670 0.540090 0.323060 -0.507189
O44   O     O_R   0.668160 0.923110 0.670000 -0.519110
O45   O     O_R   0.554690 0.080440 0.673480 -0.510419
O46   O     O_R   0.331840 0.923110 0.330000 -0.521134
O47   O     O_R   0.168160 0.423110 0.670000 -0.519110
O48   O     O_R   0.831840 0.423110 0.330000 -0.521134
O49   O     O_R   0.445310 0.080440 0.326520 -0.504084
O50   O     O_R   0.054690 0.580440 0.673480 -0.510419
O51   O     O_R   0.945310 0.580440 0.326520 -0.504084
O52   O     O_R   0.543980 0.282110 0.666770 -0.524411

loop_
_geom_bond_atom_site_label_1
_geom_bond_atom_site_label_2
_ccdc_geom_bond_type
C3    C104  S    
C61   O27   A    
C7    C10   D    
C83   C87   A    
Cr4   O4    S    
C83   H5    S    
C3    O8    A    
C38   H46   S    
C80   C97   S    
C18   H62   S    
C50   C117  S    
C84   C102  A    
C37   C88   S    
C35   C39   S    
C103  C120  S    
C36   H48   S    
Cr7   O13   S    
C14   C31   A    
C72   C76   A    
C86   C104  A    
C13   C41   S    
C49   C57   A    
C15   C32   A    
C23   H83   S    
C24   C42   S    
C45   C106  S    
C56   C69   S    
C28   C46   A    
C86   C91   A    
C50   C54   A    
Cr9   O19   S    
Cr7   O39   S    
C101  C118  S    
C5    H31   S    
C21   H76   S    
Cr2   O32   S    
C21   C37   S    
C114  O45   A    
Cr11  O21   S    
C20   H69   S    
Cr3   O33   S    
Cr4   O35   S    
C116  O50   A    
C36   C77   S    
C44   O20   A    
C90   H11   S    
C31   H41   S    
C13   C46   A    
Cr10  O25   S    
C97   H24   S    
C40   H54   S    
C81   C98   S    
C94   C98   S    
C94   H20   S    
C89   H10   S    
Cr2   O10   S    
Cr5   O41   S    
C68   H45   S    
C92   C96   S    
Cr1   O9    S    
C22   H74   S    
C67   H78   S    
C51   C56   A    
C43   C105  S    
C14   C77   A    
C74   C92   S    
C25   H79   S    
C20   H68   S    
Cr3   O3    S    
C34   H43   S    
C15   C88   A    
C41   H55   S    
C16   C34   A    
C65   H67   S    
C1    O14   A    
C39   C110  S    
C96   H22   S    
Cr6   O11   S    
C44   O16   A    
C8    C9    S    
C65   C67   S    
Cr9   O10   S    
C26   C43   A    
C11   H34   S    
C73   C78   A    
C4    H32   S    
C115  O2    A    
C17   H65   S    
C78   C95   S    
C95   H17   S    
Cr11  O51   S    
Cr5   O12   S    
Cr2   O2    S    
C75   C80   A    
C85   H7    S    
Cr4   O13   S    
C85   C103  A    
C86   H8    S    
C112  O42   A    
C27   C45   A    
C49   C114  S    
C7    H33   S    
C72   C111  S    
C84   H6    S    
C59   C60   A    
C2    C45   A    
C21   C22   S    
C46   C107  S    
C118  O5    A    
C70   C87   A    
C59   H60   S    
Cr1   O1    S    
C55   O17   A    
Cr6   O23   S    
C119  O37   A    
C9    H12   S    
C60   H61   S    
C40   H50   S    
C70   C113  S    
Cr8   O18   S    
C63   O29   A    
C54   C56   A    
Cr7   O17   S    
C107  O33   A    
C108  O35   A    
C92   H14   S    
Cr12  O5    S    
C97   H28   S    
Cr4   O8    S    
C28   C32   A    
C24   C99   A    
C73   C91   A    
C65   H84   S    
C6    C11   D    
Cr3   O29   S    
Cr6   O42   S    
C95   C100  S    
Cr8   O9    S    
Cr1   O36   S    
Cr2   O28   S    
C94   H16   S    
C42   H52   S    
C12   C66   A    
C4    C61   S    
C119  O6    A    
C87   H9    S    
C22   H73   S    
C80   C102  A    
C95   H21   S    
C113  O48   A    
C39   H53   S    
C6    C63   S    
C10   H23   S    
C25   H80   S    
Cr6   O16   S    
C111  O46   A    
C70   C74   A    
Cr3   O11   S    
C114  O52   A    
Cr12  O52   S    
C3    O39   A    
C72   C90   A    
C78   C82   A    
Cr12  O27   S    
C71   C89   A    
C98   H25   S    
C36   C40   S    
C1    O18   A    
C54   C68   S    
C26   H36   S    
C71   C112  S    
C67   H2    S    
C19   H71   S    
C17   C18   S    
C64   O30   A    
C17   H66   S    
Cr6   O38   S    
C1    C16   S    
C32   H42   S    
Cr8   O45   S    
C29   H39   S    
C116  O3    A    
C62   O28   A    
C69   H56   S    
C30   H40   S    
C39   H49   S    
C48   C115  S    
C105  O31   A    
C107  O23   A    
C28   H38   S    
C2    C40   S    
C43   C110  A    
C29   C47   A    
Cr10  O11   S    
C26   C30   A    
C69   H4    S    
C105  O1    A    
C74   C79   A    
C27   C31   A    
C92   H18   S    
Cr7   O43   S    
C93   H19   S    
C51   C59   A    
C84   C89   A    
C61   O22   A    
Cr9   O46   S    
C93   C97   S    
C48   C58   A    
C91   H13   S    
C98   H29   S    
Cr9   O49   S    
C52   C53   A    
C75   C93   S    
Cr1   O40   S    
C14   C44   S    
Cr11  O48   S    
C81   C103  A    
C115  O49   A    
Cr8   O44   S    
C27   H37   S    
C6    H35   S    
Cr1   O14   S    
C83   C101  A    
C12   C30   A    
C18   H63   S    
C24   C47   A    
C82   C100  S    
C68   C69   S    
C68   H3    S    
C41   H51   S    
Cr4   O30   S    
Cr10  O47   S    
C15   C33   S    
C38   C99   S    
Cr5   O15   S    
Cr11  O26   S    
C33   O19   A    
C76   C81   A    
C5    C8    D    
C85   C90   A    
C16   C99   A    
C73   C109  S    
Cr5   O37   S    
C76   C94   S    
C120  O7    A    
C23   C38   S    
C17   C35   S    
C109  O40   A    
C51   C116  S    
C35   C66   S    
C19   C36   S    
Cr7   O34   S    
C50   C60   A    
C19   C20   S    
C25   H81   S    
C8    H1    S    
C20   H70   S    
C57   H58   S    
Cr9   O24   S    
C2    C77   A    
C118  O36   A    
Cr12  O9    S    
C37   H44   S    
C71   C75   A    
C117  O51   A    
C35   H47   S    
Cr11  O13   S    
C57   C58   A    
Cr3   O7    S    
C22   H75   S    
C109  O44   A    
C49   C53   A    
C29   C34   A    
C13   C88   A    
Cr10  O20   S    
C19   H72   S    
Cr12  O31   S    
C21   H77   S    
C5    C62   S    
C93   H15   S    
C106  O12   A    
C23   C25   S    
C18   H64   S    
C37   C41   S    
C33   O15   A    
C53   C67   S    
C120  O38   A    
C7    C64   S    
C12   C55   S    
C55   O21   A    
C10   C11   S    
C102  C119  S    
C112  O47   A    
Cr10  O50   S    
C38   C42   S    
C100  H26   S    
C79   C96   S    
C96   H27   S    
C64   O26   A    
C66   C110  A    
C47   C108  S    
Cr2   O6    S    
C108  O34   A    
C58   H59   S    
C42   H57   S    
C62   O24   A    
C82   C104  A    
C79   C101  A    
C100  H30   S    
C113  O43   A    
C106  O32   A    
C4    C9    D    
C48   C52   A    
Cr8   O22   S    
C111  O41   A    
C52   C65   S    
Cr5   O10   S    
C117  O4    A    
C23   H82   S    
C63   O25   A    
