data_str_m2_o4_o10_f0_pcu.sym.4
_audit_creation_date              2012-10-26T20:13:54-0400
_audit_creation_method            fapswitch 2.2
_symmetry_space_group_name_H-M    P1
_symmetry_Int_Tables_number       1
_space_group_crystal_system       triclinic
_cell_length_a                    8.799617
_cell_length_b                    10.807809
_cell_length_c                    9.663683
_cell_angle_alpha                 89.846389
_cell_angle_beta                  97.149375
_cell_angle_gamma                 92.957261
_cell_volume                      910.69397963

loop_
_atom_site_label
_atom_site_type_symbol
_atom_type_description
_atom_site_fract_x
_atom_site_fract_y
_atom_site_fract_z
_atom_type_partial_charge
C1    C     C_R   0.497342 0.262598 0.499973 0.524661
C2    C     C_R   0.578424 0.591357 0.935232 0.139895
C3    C     C_3   0.747377 0.619715 0.949168 -0.270757
C4    C     C_R   0.204509 0.497892 0.465235 0.542015
C5    C     C_3   0.748167 0.618446 0.105908 -0.280351
C6    C     C_R   0.499236 0.737129 0.499891 0.579683
C7    C     C_R   0.794534 0.495546 0.535570 0.564689
C8    C     C_2   0.039171 0.497429 0.448920 -0.121855
C9    C     C_2   0.958084 0.480697 0.557316 0.235147
C10   C     C_R   0.545978 0.065423 0.620056 -0.036195
C11   C     C_R   0.487220 0.128616 0.501032 0.013969
C12   C     C_R   0.415670 0.931533 0.385243 -0.161730
C13   C     C_R   0.413965 0.060614 0.385854 -0.156259
C14   C     C_3   0.345167 0.298849 0.835521 -0.321846
C15   C     C_3   0.980293 0.341762 0.737139 -0.142621
C16   C     C_3   0.957732 0.893052 0.698678 -0.119143
C17   C     C_3   0.299045 0.323261 0.122703 -0.333963
C18   C     C_R   0.490017 0.870025 0.500452 0.043151
C19   C     C_R   0.548102 0.937900 0.619761 0.041683
C20   C     C_3   0.705141 0.939508 0.700048 0.158848
C21   C     C_3   0.702303 0.080030 0.699577 -0.239233
C22   C     C_R   0.579706 0.590479 0.081793 0.143816
C23   C     C_R   0.408748 0.416225 0.064153 0.131886
C24   C     C_R   0.415754 0.411804 0.916569 0.128052
Cu1   Cu    Cu3+1 0.499990 0.499980 0.640670 0.953964
Cu2   Cu    Cu3+1 0.500010 0.500020 0.359330 0.925880
H1    H     H_    0.982915 0.513207 0.344753 0.069739
H2    H     H_    0.786251 0.125990 0.636641 0.140544
H3    H     H_    0.286762 0.324478 0.733528 0.210961
H4    H     H_    0.435794 0.232669 0.827380 0.133472
H5    H     H_    0.255513 0.244537 0.882285 0.050005
H6    H     H_    0.023783 0.267791 0.675063 0.088938
H7    H     H_    0.854525 0.327742 0.734552 0.136511
H8    H     H_    0.026331 0.331556 0.848026 0.125814
H9    H     H_    0.956302 0.824959 0.784867 0.120127
H10   H     H_    0.997112 0.986629 0.740697 0.095304
H11   H     H_    0.042465 0.863733 0.630999 0.152038
H12   H     H_    0.811439 0.543416 0.910940 0.176819
H13   H     H_    0.286336 0.329197 0.232145 0.196606
H14   H     H_    0.181344 0.334200 0.069548 0.084291
H15   H     H_    0.335220 0.228311 0.105936 0.084647
H16   H     H_    0.776660 0.712573 0.908513 0.120273
H17   H     H_    0.810646 0.540169 0.155513 0.147293
H18   H     H_    0.778101 0.710541 0.155680 0.136105
H19   H     H_    0.358701 0.106674 0.295715 0.113318
H20   H     H_    0.362439 0.880413 0.294105 0.128242
H21   H     H_    0.703974 0.896349 0.804596 0.091583
H22   H     H_    0.700340 0.120187 0.805054 0.080452
N1    N     N_R   0.500980 0.500930 0.148050 -0.233105
N2    N     N_R   0.500990 0.500890 0.852140 -0.237489
O1    O     O_R   0.500000 0.319640 0.618810 -0.538784
O2    O     O_3   0.812965 0.894732 0.617939 -0.553279
O3    O     O_R   0.500020 0.319680 0.381230 -0.520133
O4    O     O_R   0.274830 0.499980 0.591380 -0.450961
O5    O     O_R   0.274850 0.500020 0.353800 -0.533828
O6    O     O_R   0.499980 0.680320 0.618770 -0.496212
O7    O     O_R   0.500000 0.680360 0.381190 -0.496644
O8    O     O_R   0.725150 0.499980 0.646200 -0.488273
O9    O     O_R   0.725170 0.500020 0.408620 -0.528408
O10   O     O_3   0.028120 0.460432 0.691911 -0.549351

loop_
_geom_bond_atom_site_label_1
_geom_bond_atom_site_label_2
_ccdc_geom_bond_type
C16   H11   S    
C2    C22   A    
C23   C24   A    
Cu1   O1    S    
C3    H16   S    
C11   C13   A    
Cu2   O9    S    
C10   C19   A    
C15   H8    S    
C19   C20   S    
C1    C11   S    
Cu1   O6    S    
C14   H5    S    
C4    C8    S    
C9    O10   S    
Cu2   O5    S    
C21   H22   S    
C2    C3    S    
C5    H17   S    
C15   H6    S    
C10   C21   S    
C21   H2    S    
C7    O8    A    
C12   C13   A    
C13   H19   S    
C1    O1    A    
C6    O7    A    
C17   C23   S    
C14   H4    S    
C22   N1    A    
C7    O9    A    
Cu1   Cu2   S    
C5    H18   S    
C16   H9    S    
C24   N2    A    
C6    C18   S    
Cu2   O7    S    
C17   H15   S    
C23   N1    A    
C20   H21   S    
Cu1   O8    S    
C14   H3    S    
C14   C24   S    
Cu2   O3    S    
Cu1   O4    S    
C20   O2    S    
C18   C19   A    
C10   C11   A    
Cu2   N1    S    
C12   C18   A    
C4    O5    A    
C7    C9    S    
C8    H1    S    
C17   H13   S    
Cu1   N2    S    
C1    O3    A    
C2    N2    A    
C4    O4    A    
C20   C21   S    
C17   H14   S    
C15   H7    S    
C15   O10   S    
C16   H10   S    
C5    C22   S    
C16   O2    S    
C3    H12   S    
C6    O6    A    
C8    C9    D    
C3    C5    S    
C12   H20   S    
