data_str_m2_o5_o29_f0_pcu.sym.107
_audit_creation_date              2013-03-05T16:36:12-0500
_audit_creation_method            fapswitch 2.2
_symmetry_space_group_name_H-M    P1
_symmetry_Int_Tables_number       1
_space_group_crystal_system       triclinic
_cell_length_a                    27.775568
_cell_length_b                    9.078083
_cell_length_c                    7.775819
_cell_angle_alpha                 89.998681
_cell_angle_beta                  89.997208
_cell_angle_gamma                 89.457828
_cell_volume                      1960.57651474

loop_
_atom_site_label
_atom_site_type_symbol
_atom_site_description
_atom_site_fract_x
_atom_site_fract_y
_atom_site_fract_z
_atom_type_partial_charge
O1    O     O_R   0.500000 0.288390 0.642760 -0.577588
O2    O     O_R   0.500000 0.711610 0.357240 -0.582034
O3    O     O_R   0.500000 0.711610 0.642760 -0.577640
O4    O     O_R   0.500000 0.288390 0.357240 -0.581842
C1    C     C_R   0.499724 0.220015 0.499980 0.883633
C2    C     C_R   0.500278 0.779985 0.499977 0.883734
O5    O     O_R   0.430260 0.500000 0.642770 -0.587516
O6    O     O_R   0.569740 0.500000 0.357230 -0.537040
O7    O     O_R   0.569740 0.500000 0.642770 -0.587318
O8    O     O_R   0.430260 0.500000 0.357230 -0.536493
C3    C     C_R   0.407242 0.499842 0.499987 0.882472
C4    C     C_R   0.592757 0.500077 0.499984 0.882241
Cu1   Cu    Cu3+1 0.500000 0.500000 0.669080 1.052019
Cu2   Cu    Cu3+1 0.500000 0.500000 0.330920 1.077038
C5    C     C_R   0.178653 0.380619 0.613858 0.617615
C6    C     C_R   0.821324 0.619697 0.613756 0.617906
C7    C     C_R   0.176064 0.627756 0.509378 0.616778
C8    C     C_R   0.823939 0.372573 0.509261 0.616655
O9    O     O_2   0.205109 0.264972 0.670339 -0.435907
O10   O     O_2   0.794853 0.735290 0.670305 -0.435630
O11   O     O_2   0.199628 0.743793 0.442630 -0.437329
O12   O     O_2   0.800386 0.256516 0.442522 -0.437392
N1    N     N_R   0.201499 0.503994 0.555758 -0.457299
N2    N     N_R   0.798492 0.496301 0.555668 -0.457397
C9    C     C_R   0.280761 0.607098 0.632765 0.429366
C10   C     C_R   0.719256 0.393094 0.632823 0.429443
C11   C     C_R   0.276299 0.400956 0.431469 0.445630
C12   C     C_R   0.723671 0.599153 0.431364 0.445269
C13   C     C_R   0.330778 0.614922 0.605925 -0.158475
C14   C     C_R   0.669239 0.385167 0.606048 -0.158389
C15   C     C_R   0.326744 0.399400 0.415987 -0.166416
C16   C     C_R   0.673231 0.600507 0.415826 -0.165966
C17   C     C_R   0.253323 0.503071 0.541374 0.083044
C18   C     C_R   0.746668 0.497145 0.541346 0.083190
C19   C     C_R   0.101483 0.503411 0.575409 -0.196786
C20   C     C_R   0.898506 0.496986 0.575292 -0.196934
C21   C     C_R   0.128006 0.374222 0.614607 -0.140390
C22   C     C_R   0.871972 0.626159 0.614457 -0.140154
C23   C     C_R   0.125668 0.633633 0.529177 -0.134329
C24   C     C_R   0.874334 0.366743 0.529052 -0.134264
C25   C     C_R   0.103173 0.243515 0.654653 0.536433
C26   C     C_R   0.896786 0.756903 0.654471 0.536632
C27   C     C_R   0.098783 0.764305 0.500455 0.532149
C28   C     C_R   0.901230 0.236094 0.500330 0.532058
C29   C     C_R   0.354170 0.507328 0.502226 -0.294154
C30   C     C_R   0.645829 0.492629 0.502225 -0.294125
C31   C     C_R   0.975714 0.364613 0.570842 0.015754
C32   C     C_R   0.024276 0.635814 0.570836 0.015689
C33   C     C_R   0.973754 0.633758 0.595412 0.011705
C34   C     C_R   0.026228 0.366674 0.595491 0.011527
C35   C     C_R   0.949392 0.498359 0.581070 0.070368
C36   C     C_R   0.050596 0.502063 0.581131 0.070334
C37   C     C_R   0.950904 0.234366 0.531692 -0.320540
C38   C     C_R   0.049101 0.766052 0.531735 -0.320056
C39   C     C_R   0.946852 0.761707 0.634235 -0.316847
C40   C     C_R   0.053116 0.238732 0.634426 -0.316597
H1    H     H_    0.969798 0.130818 0.515683 0.144029
H2    H     H_    0.030217 0.869613 0.515724 0.144014
H3    H     H_    0.964207 0.865833 0.657076 0.148934
H4    H     H_    0.035759 0.134628 0.657465 0.149163
C41   C     C_1   0.499893 0.065394 0.499946 -0.106465
C42   C     C_1   0.500110 0.934606 0.499943 -0.106274
N3    N     N_1   0.500000 0.500000 0.076820 -0.018155
N4    N     N_1   0.500000 0.500000 0.923180 -0.032594
C43   C     C_2   0.349855 0.280249 0.313917 0.897430
O13   O     O_2   0.342872 0.151546 0.352199 -0.514209
O14   O     O_R   0.377864 0.314643 0.170383 -0.745094
H5    H     H_    0.391230 0.223727 0.110793 0.332600
C44   C     C_2   0.650080 0.719328 0.313412 0.898066
O15   O     O_2   0.656678 0.848115 0.352170 -0.515017
O16   O     O_R   0.622448 0.684514 0.169104 -0.745158
H6    H     H_    0.608995 0.775222 0.109330 0.332650
C45   C     C_2   0.357921 0.739835 0.681919 0.976858
O17   O     O_2   0.388790 0.801793 0.597164 -0.603903
O18   O     O_R   0.347748 0.788459 0.848710 -0.717122
H7    H     H_    0.368487 0.874450 0.884697 0.341341
C46   C     C_2   0.642116 0.260272 0.682208 0.976919
O19   O     O_2   0.611221 0.198294 0.597617 -0.603720
O20   O     O_R   0.652338 0.211686 0.848970 -0.717016
H8    H     H_    0.631608 0.125708 0.885081 0.341428
O21   O     O_3   0.249307 0.295607 0.347372 -0.500723
C47   C     C_3   0.235636 0.351222 0.185282 -0.264165
H9    H     H_    0.267612 0.366714 0.101411 0.164400
H10   H     H_    0.214681 0.455866 0.197114 0.128573
H11   H     H_    0.212061 0.269651 0.121731 0.202849
O22   O     O_3   0.750627 0.704615 0.347296 -0.501014
C48   C     C_3   0.764383 0.649021 0.185283 -0.263998
H12   H     H_    0.732447 0.633545 0.101229 0.164661
H13   H     H_    0.785332 0.544375 0.197205 0.128538
H14   H     H_    0.787991 0.730601 0.121884 0.203219
O23   O     O_3   0.258008 0.711892 0.734510 -0.497994
C49   C     C_3   0.247305 0.648614 0.895491 -0.195901
H15   H     H_    0.280243 0.603990 0.959118 0.174448
H16   H     H_    0.219766 0.561306 0.883609 0.114832
H17   H     H_    0.232135 0.735629 0.980346 0.207132
O24   O     O_3   0.742038 0.288368 0.734580 -0.498064
C50   C     C_3   0.752741 0.351705 0.895521 -0.196041
H18   H     H_    0.719798 0.396265 0.959184 0.174675
H19   H     H_    0.780258 0.439072 0.883567 0.114905
H20   H     H_    0.767941 0.264742 0.980381 0.207057
O25   O     O_3   0.128066 0.115782 0.696153 -0.470778
C51   C     C_3   0.120853 0.084098 0.871686 -0.224873
H21   H     H_    0.083132 0.050364 0.897015 0.114360
H22   H     H_    0.130721 0.179087 0.954857 0.123374
H23   H     H_    0.144633 0.990129 0.907456 0.202375
O26   O     O_3   0.871831 0.884588 0.695818 -0.470497
C52   C     C_3   0.879546 0.917750 0.870728 -0.225202
H24   H     H_    0.917132 0.954097 0.893658 0.115536
H25   H     H_    0.870676 0.822660 0.955339 0.121959
H26   H     H_    0.855281 0.010447 0.906968 0.202643
O27   O     O_3   0.121700 0.894346 0.459643 -0.473981
C53   C     C_3   0.109235 0.936718 0.290849 -0.223495
H27   H     H_    0.116093 0.846213 0.196951 0.128284
H28   H     H_    0.132146 0.030874 0.253498 0.198463
H29   H     H_    0.071160 0.974922 0.283301 0.115449
O28   O     O_3   0.878332 0.106053 0.459410 -0.474101
C54   C     C_3   0.890786 0.063875 0.290537 -0.223705
H30   H     H_    0.883868 0.154435 0.196760 0.128334
H31   H     H_    0.867910 0.969654 0.253144 0.198481
H32   H     H_    0.928878 0.025846 0.282843 0.115447

loop_
_geom_bond_atom_site_label_1
_geom_bond_atom_site_label_2
_geom_bond_distance
_ccdc_geom_bond_type
O5    Cu1   1.947851 S    
C48   H12   1.111836 S    
O25   C51   1.409574 S    
C39   H3    1.079847 S    
C52   H25   1.114771 S    
C45   O17   1.222661 D    
C19   C23   1.411742 A    
O27   C53   1.409973 S    
O3    C2    1.272031 A    
C53   H28   1.109138 S    
O21   C47   1.408565 S    
C46   O19   1.222643 D    
C11   C17   1.409152 A    
C5    O9    1.349242 S    
C7    N1    1.369834 A    
O1    C1    1.272040 A    
C19   C21   1.412336 A    
C22   C26   1.412832 A    
C32   C36   1.413613 A    
C54   H31   1.109140 S    
C13   C45   1.489872 S    
O26   C52   1.409826 S    
O28   C54   1.409974 S    
C51   H23   1.109363 S    
C7    C23   1.408734 A    
C44   O16   1.397406 S    
O7    Cu1   1.947829 S    
C5    C21   1.408514 A    
C8    C24   1.408691 A    
C14   C46   1.489908 S    
C28   C37   1.401075 A    
C10   C18   1.411196 A    
C43   O14   1.397440 S    
N1    C17   1.443723 S    
C34   C36   1.413119 A    
C52   H24   1.112224 S    
C41   C42   1.187261 T    
O3    Cu1   1.931880 S    
O6    C4    1.281007 A    
C31   C37   1.407498 A    
C5    N1    1.369155 A    
C12   C18   1.409168 A    
C6    N2    1.369136 A    
Cu1   Cu2   2.629472 S    
C9    C13   1.407271 A    
C45   O18   1.397981 S    
O2    C2    1.271749 A    
C27   O27   1.383357 S    
O14   H5    1.013873 S    
C53   H27   1.114220 S    
C50   H19   1.110549 S    
C50   H18   1.113040 S    
C31   C34   1.416394 A    
C46   O20   1.397945 S    
C10   O24   1.385266 S    
C9    O23   1.385265 S    
N3    N4    1.194678 T    
C11   C15   1.406238 A    
C51   H21   1.111902 S    
C20   C24   1.411772 A    
C4    C30   1.475108 S    
O8    Cu2   1.947832 S    
C54   H32   1.111415 S    
O23   C49   1.410113 S    
C37   H1    1.079448 S    
O22   C48   1.408576 S    
C11   O21   1.384901 S    
C31   C35   1.413586 A    
C33   C35   1.413130 A    
C33   C39   1.407897 A    
C49   H17   1.109326 S    
C34   C40   1.407840 A    
C40   H4    1.079933 S    
C13   C29   1.419272 A    
C32   C38   1.407528 A    
O18   H7    1.013926 S    
C25   C40   1.400319 A    
C26   C39   1.400589 A    
C27   C38   1.401148 A    
O5    C3    1.281216 A    
C12   C16   1.406141 A    
C6    O10   1.349248 S    
O24   C50   1.410108 S    
C49   H16   1.110562 S    
C1    C41   1.403624 S    
C51   H22   1.114222 S    
C26   O26   1.382815 S    
C20   C35   1.414257 A    
C32   C33   1.416520 A    
C10   C14   1.407289 A    
C47   H10   1.113188 S    
C48   H13   1.113191 S    
C12   O22   1.384913 S    
C52   H26   1.109536 S    
C8    N2    1.369805 A    
C3    C29   1.475133 S    
O1    Cu1   1.931890 S    
C50   H20   1.109316 S    
C38   H2    1.079420 S    
C15   C43   1.482860 S    
O6    Cu2   1.947849 S    
C8    O12   1.349220 S    
C16   C30   1.415539 A    
C14   C30   1.419241 A    
O4    C1    1.271741 A    
C23   C27   1.413478 A    
C16   C44   1.482596 S    
C47   H11   1.109292 S    
C2    C42   1.403625 S    
C20   C22   1.412324 A    
O16   H6    1.013863 S    
O4    Cu2   1.931881 S    
C54   H30   1.114231 S    
Cu1   N4    1.975835 S    
Cu2   N3    1.975835 S    
C49   H15   1.113055 S    
C25   O25   1.382616 S    
C43   O13   1.222948 D    
C21   C25   1.412840 A    
C44   O15   1.222857 D    
O2    Cu2   1.931889 S    
O7    C4    1.281163 A    
N2    C18   1.443680 S    
O8    C3    1.280990 A    
O20   H8    1.013927 S    
C24   C28   1.413460 A    
C28   O28   1.383331 S    
C47   H9    1.111859 S    
C15   C29   1.415675 A    
C48   H14   1.109336 S    
C9    C17   1.411156 A    
C19   C36   1.414287 A    
C53   H29   1.111393 S    
C6    C22   1.408567 A    
C7    O11   1.349211 S    
