data_str_m9_o18_o29_f0_sra.sym.76
_audit_creation_date              2012-12-11T15:36:03-0500
_audit_creation_method            fapswitch 2.2
_symmetry_space_group_name_H-M    P1
_symmetry_Int_Tables_number       1
_space_group_crystal_system       triclinic
_cell_length_a                    7.006647
_cell_length_b                    11.894386
_cell_length_c                    35.786345
_cell_angle_alpha                 89.96362
_cell_angle_beta                  90.894129
_cell_angle_gamma                 89.569556
_cell_volume                      2981.97739883

loop_
_atom_site_label
_atom_site_type_symbol
_atom_type_description
_atom_site_fract_x
_atom_site_fract_y
_atom_site_fract_z
_atom_type_partial_charge
O1    O     O_R   0.379730 0.148600 0.662710 -0.534645
O2    O     O_R   0.620270 0.851400 0.337290 -0.535944
O3    O     O_R   0.120270 0.648600 0.337290 -0.535284
O4    O     O_R   0.879730 0.351400 0.662710 -0.534106
O5    O     O_R   0.722480 0.134490 0.741330 -0.543687
O6    O     O_R   0.277520 0.865510 0.258670 -0.538936
O7    O     O_R   0.777520 0.634490 0.258670 -0.539792
O8    O     O_R   0.222480 0.365510 0.741330 -0.544338
O9    O     O_R   0.892880 0.345890 0.741600 -0.542527
O10   O     O_R   0.107120 0.654110 0.258400 -0.538087
O11   O     O_R   0.607120 0.845890 0.258400 -0.534530
O12   O     O_R   0.392880 0.154110 0.741600 -0.538036
C1    C     C_R   0.554996 0.118431 0.755846 0.694310
C2    C     C_R   0.446171 0.887334 0.245558 0.690331
C3    C     C_R   0.946615 0.613947 0.245134 0.696761
C4    C     C_R   0.053997 0.383120 0.755562 0.697087
O13   O     O_R   0.709490 0.135560 0.662990 -0.534242
O14   O     O_R   0.290510 0.864440 0.337010 -0.535670
O15   O     O_R   0.790510 0.635560 0.337010 -0.536203
O16   O     O_R   0.209490 0.364440 0.662990 -0.534873
C5    C     C_R   0.540398 0.106963 0.651200 0.711243
C6    C     C_R   0.459616 0.893152 0.348760 0.702877
C7    C     C_R   0.960451 0.606847 0.348749 0.704138
C8    C     C_R   0.039558 0.393081 0.651226 0.710380
O17   O     O_3   0.552800 0.316610 0.702160 -0.370422
O18   O     O_3   0.447200 0.683390 0.297840 -0.369135
O19   O     O_3   0.947200 0.816610 0.297840 -0.368289
O20   O     O_3   0.052800 0.183390 0.702160 -0.368928
V1    V     V_3+5 0.827630 0.234380 0.702160 1.444204
V2    V     V_3+5 0.172370 0.765620 0.297840 1.459983
V3    V     V_3+5 0.672370 0.734380 0.297840 1.456865
V4    V     V_3+5 0.327630 0.265620 0.702160 1.443732
C9    C     C_R   0.048061 0.613231 0.925611 0.606574
C10   C     C_R   0.032809 0.327102 0.085702 0.590664
C11   C     C_R   0.572508 0.196705 0.093994 0.579229
C12   C     C_R   0.547254 0.900420 0.928179 0.604213
O21   O     O_2   0.051160 0.501686 0.932342 -0.478110
O22   O     O_2   0.005469 0.434660 0.074963 -0.514345
O23   O     O_2   0.627119 0.090394 0.086569 -0.520171
O24   O     O_2   0.536434 0.011967 0.934524 -0.482295
N1    N     N_R   0.041227 0.651945 0.889439 -0.549748
N2    N     N_R   0.020597 0.296773 0.122828 -0.543941
N3    N     N_R   0.518424 0.227578 0.129672 -0.547154
N4    N     N_R   0.550193 0.860452 0.892083 -0.549060
C13   C     C_R   0.031437 0.765228 0.882689 0.605995
C14   C     C_R   0.036892 0.183866 0.131891 0.604256
C15   C     C_R   0.487955 0.340986 0.136479 0.581306
C16   C     C_R   0.564152 0.746822 0.885983 0.595150
C17   C     C_R   0.184953 0.595038 0.829732 -0.112608
C18   C     C_R   0.889673 0.355527 0.184709 -0.073357
C19   C     C_R   0.518411 0.166054 0.198137 -0.068197
C20   C     C_R   0.411885 0.910204 0.829792 -0.084858
C21   C     C_R   0.185324 0.533316 0.796723 -0.180440
C22   C     C_R   0.870308 0.431241 0.214310 -0.182432
C23   C     C_R   0.502808 0.083423 0.225653 -0.181301
C24   C     C_R   0.415282 0.970013 0.796229 -0.181768
C25   C     C_R   0.912835 0.429438 0.818072 -0.176853
C26   C     C_R   0.055911 0.566128 0.180678 -0.152469
C27   C     C_R   0.426443 0.946457 0.178532 -0.170982
C28   C     C_R   0.668899 0.084767 0.821504 -0.171242
C29   C     C_R   0.916869 0.489988 0.851817 0.015717
C30   C     C_R   0.068270 0.491236 0.150475 0.001785
C31   C     C_R   0.443963 0.028925 0.150762 -0.030646
C32   C     C_R   0.659110 0.027390 0.855696 -0.014294
C33   C     C_R   0.050029 0.576250 0.857572 0.351743
C34   C     C_R   0.991800 0.381646 0.152320 0.317471
C35   C     C_R   0.494951 0.141534 0.159385 0.320719
C36   C     C_R   0.537268 0.935104 0.859739 0.335317
C37   C     C_R   0.061254 0.806123 0.949146 -0.056898
C38   C     C_R   0.058535 0.130687 0.066474 -0.041160
C39   C     C_R   0.548521 0.390402 0.071668 -0.030087
C40   C     C_R   0.549418 0.708429 0.952527 -0.055251
C41   C     C_R   0.052492 0.689958 0.955998 -0.106514
C42   C     C_R   0.067146 0.245722 0.057817 -0.126193
C43   C     C_R   0.577796 0.275747 0.064443 -0.111972
C44   C     C_R   0.553668 0.824908 0.958957 -0.097720
C45   C     C_R   0.040861 0.653205 0.992823 -0.257862
C46   C     C_R   0.114615 0.277355 0.021645 -0.245918
C47   C     C_R   0.623652 0.242636 0.028128 -0.250536
C48   C     C_R   0.567730 0.863016 0.995805 -0.268206
C49   C     C_R   0.054606 0.843125 0.911881 -0.120792
C50   C     C_R   0.041125 0.100054 0.103905 -0.067948
C51   C     C_R   0.515246 0.423331 0.108451 -0.088633
C52   C     C_R   0.547125 0.669979 0.915508 -0.119516
C53   C     C_R   0.047035 0.451267 0.790108 -0.061383
C54   C     C_R   0.957905 0.536167 0.213005 -0.059090
C55   C     C_R   0.457990 0.973240 0.216092 -0.036620
C56   C     C_R   0.548655 0.055205 0.791305 -0.054896
H1    H     H_    0.807512 0.364194 0.814144 0.125642
H2    H     H_    0.122101 0.647908 0.178666 0.147508
H3    H     H_    0.387903 0.861593 0.170610 0.165252
H4    H     H_    0.768281 0.153478 0.818818 0.127677
H5    H     H_    0.815469 0.470169 0.873058 0.154025
H6    H     H_    0.144341 0.519245 0.126510 0.189138
H7    H     H_    0.410495 0.002952 0.122654 0.188829
H8    H     H_    0.748469 0.054281 0.878613 0.186487
H9    H     H_    0.022977 0.564628 0.998799 0.204070
H10   H     H_    0.142519 0.364520 0.015009 0.188443
H11   H     H_    0.660727 0.156093 0.022024 0.194332
H12   H     H_    0.583068 0.951911 0.001574 0.197333
C57   C     C_R   0.059357 0.929982 0.046933 0.007892
C58   C     C_R   0.079018 0.002432 0.970851 -0.025394
C59   C     C_R   0.552085 0.512845 0.975074 -0.052883
C60   C     C_R   0.537312 0.589047 0.050355 0.022163
C61   C     C_R   0.093776 0.082200 0.000327 -0.070589
C62   C     C_R   0.058686 0.847520 0.017129 -0.056659
C63   C     C_R   0.551978 0.669589 0.020419 -0.036468
C64   C     C_R   0.577034 0.434659 0.004922 -0.068792
C65   C     C_R   0.068464 0.047000 0.037760 -0.094550
C66   C     C_R   0.069911 0.885453 0.979279 -0.097407
C67   C     C_R   0.550111 0.630136 0.982858 -0.103036
C68   C     C_R   0.554609 0.471868 0.042237 -0.059284
C69   C     C_R   0.057187 0.903045 0.085830 0.796829
C70   C     C_R   0.059424 0.035935 0.932885 0.765928
C71   C     C_R   0.520535 0.478480 0.937562 0.785086
C72   C     C_R   0.502316 0.618974 0.088117 0.777383
C73   C     C_R   0.037777 0.986037 0.113017 -0.218200
C74   C     C_R   0.060095 0.957583 0.904276 -0.277617
C75   C     C_R   0.522967 0.555770 0.908496 -0.277328
C76   C     C_R   0.500321 0.538186 0.116383 -0.251362
O25   O     O_2   0.055753 0.151065 0.167837 -0.541744
O26   O     O_2   0.991927 0.802774 0.847793 -0.526295
O27   O     O_2   0.602201 0.707782 0.851489 -0.530623
O28   O     O_2   0.424938 0.376360 0.169793 -0.550955
C77   C     C_R   0.033564 0.729183 0.022510 0.676859
C78   C     C_R   0.140515 0.196643 0.994070 0.772437
C79   C     C_R   0.629572 0.320620 0.999129 0.749396
C80   C     C_R   0.574254 0.787703 0.025867 0.683278
H13   H     H_    0.031242 0.959807 0.141970 0.179724
H14   H     H_    0.054998 0.987771 0.875721 0.176642
H15   H     H_    0.499546 0.525769 0.880242 0.173419
H16   H     H_    0.474877 0.566429 0.144665 0.176256
C81   C     C_R   0.969706 0.527527 0.379720 -0.088668
C82   C     C_R   0.030346 0.472303 0.620224 -0.090590
C83   C     C_R   0.532899 0.027889 0.620193 -0.090687
C84   C     C_R   0.467183 0.972355 0.379723 -0.088071
C85   C     C_R   0.909808 0.342977 0.404465 -0.129935
C86   C     C_R   0.090465 0.656767 0.595434 -0.130018
C87   C     C_R   0.593247 0.842931 0.595481 -0.129870
C88   C     C_R   0.407298 0.157450 0.404369 -0.129418
C89   C     C_R   0.927807 0.414372 0.373951 -0.175302
C90   C     C_R   0.072236 0.585469 0.625964 -0.174769
C91   C     C_R   0.575285 0.914421 0.625980 -0.175227
C92   C     C_R   0.425003 0.085832 0.373891 -0.176314
C93   C     C_R   0.999935 0.568656 0.415792 -0.076078
C94   C     C_R   0.000334 0.431066 0.584156 -0.076186
C95   C     C_R   0.502397 0.069325 0.584110 -0.077494
C96   C     C_R   0.497802 0.931047 0.415815 -0.076876
C97   C     C_R   0.991512 0.497195 0.447236 0.098395
C98   C     C_R   0.009004 0.502433 0.552689 0.099021
C99   C     C_R   0.510596 0.997823 0.552677 0.098963
C100  C     C_R   0.489982 0.002680 0.447213 0.098167
C101  C     C_R   0.935141 0.384280 0.440944 0.011163
C102  C     C_R   0.065371 0.615364 0.558965 0.011092
C103  C     C_R   0.567190 0.884425 0.558998 0.011815
C104  C     C_R   0.433493 0.116070 0.440867 0.011739
C105  C     C_R   0.023768 0.535822 0.484658 -0.130455
C106  C     C_R   0.976927 0.463736 0.515267 -0.130031
C107  C     C_R   0.477469 0.036638 0.515242 -0.131268
C108  C     C_R   0.523312 0.963952 0.484646 -0.131699
C109  C     C_R   0.898555 0.356280 0.507193 0.680115
C110  C     C_R   0.102292 0.643237 0.492723 0.679849
C111  C     C_R   0.602007 0.855865 0.492734 0.679104
C112  C     C_R   0.398996 0.144784 0.507138 0.679496
C113  C     C_R   0.889926 0.315792 0.470913 -0.242415
C114  C     C_R   0.110833 0.683777 0.528993 -0.242284
C115  C     C_R   0.611680 0.815454 0.529039 -0.242832
C116  C     C_R   0.389285 0.185135 0.470821 -0.243130
H17   H     H_    0.834874 0.231963 0.466081 0.156794
H18   H     H_    0.165971 0.767590 0.533818 0.156818
H19   H     H_    0.666833 0.731150 0.533882 0.157050
H20   H     H_    0.334290 0.269467 0.465965 0.157084
H21   H     H_    0.987133 0.341326 0.581657 0.199756
H22   H     H_    0.013103 0.658394 0.418323 0.199779
H23   H     H_    0.511307 0.841216 0.418390 0.200136
H24   H     H_    0.488685 0.159151 0.581581 0.200202
H25   H     H_    0.098520 0.617307 0.653917 0.106647
H26   H     H_    0.901375 0.382616 0.345991 0.104544
H27   H     H_    0.398481 0.117766 0.345913 0.104635
H28   H     H_    0.601802 0.882392 0.653944 0.107704
H29   H     H_    0.868690 0.256440 0.399626 0.130000
H30   H     H_    0.131580 0.743314 0.600257 0.130152
H31   H     H_    0.634580 0.756052 0.600335 0.130484
H32   H     H_    0.366087 0.244335 0.399490 0.130340
F1    F     F_    0.814924 0.291317 0.533301 -0.700614
F2    F     F_    0.186183 0.708080 0.466613 -0.700594
F3    F     F_    0.684999 0.790078 0.466598 -0.700936
F4    F     F_    0.316334 0.210732 0.533268 -0.700972
H33   H     H_    0.791827 0.406259 0.238766 0.116550
H34   H     H_    0.292288 0.551271 0.776057 0.137434
H35   H     H_    0.317772 0.947351 0.773730 0.129566
H36   H     H_    0.525624 0.105935 0.254721 0.096791
H37   H     H_    0.826250 0.275013 0.187383 0.149266
H38   H     H_    0.288413 0.659631 0.833294 0.155527
H39   H     H_    0.314429 0.842001 0.832004 0.154411
H40   H     H_    0.551536 0.247922 0.208786 0.149285
F5    F     F_    0.094238 0.799528 0.099637 -0.596600
F6    F     F_    0.013096 0.142622 0.922687 -0.575717
F7    F     F_    0.468017 0.372431 0.928513 -0.542438
F8    F     F_    0.447170 0.723402 0.098377 -0.606995
F9    F     F_    0.976500 0.683249 0.054919 -0.595168
F10   F     F_    0.232089 0.230282 0.963004 -0.541340
F11   F     F_    0.707383 0.285098 0.966695 -0.569071
F12   F     F_    0.628765 0.832277 0.059097 -0.603571

loop_
_geom_bond_atom_site_label_1
_geom_bond_atom_site_label_2
_ccdc_geom_bond_type
C26   C30   A    
N4    C16   A    
C58   C66   A    
C100  C108  A    
O1    C5    A    
C105  C106  A    
C22   H33   S    
O13   V1    S    
O3    C7    A    
C10   N2    A    
C40   C44   A    
O15   V3    S    
C84   C96   A    
C16   O27   S    
C28   C56   A    
C87   H31   S    
C78   F10   S    
C62   C77   A    
C77   F9    S    
C18   C22   A    
C17   C33   A    
C61   C78   A    
C109  C113  A    
C74   H14   S    
C32   C36   A    
C111  F3    S    
O20   V1    S    
O9    C4    A    
C63   C80   A    
O10   C3    A    
C62   C66   A    
O4    C8    A    
O11   C2    A    
C29   H5    S    
C24   C56   A    
C90   H25   S    
C82   C90   A    
C17   H38   S    
C104  C116  A    
C57   C65   A    
C94   H21   S    
C31   H7    S    
C57   C69   A    
C58   C61   A    
C59   C67   A    
C80   F12   S    
C97   C101  A    
C109  F1    S    
C12   C44   A    
C106  C109  A    
C60   C72   A    
C87   C91   A    
C100  C104  A    
C103  C115  A    
C46   H10   S    
C75   H15   S    
C14   O25   S    
C45   H9    S    
C59   C64   A    
O14   V2    S    
C15   C51   A    
O14   C6    A    
C11   N3    A    
C21   H34   S    
O5    C1    A    
O4    V1    S    
C20   C36   A    
C12   N4    A    
O9    V1    S    
C64   C68   A    
C73   H13   S    
C86   C102  A    
O17   V4    S    
C83   C91   A    
C24   H35   S    
O11   V3    S    
O18   V3    S    
O8    C4    A    
C14   C50   A    
O12   V4    S    
O19   V2    S    
C113  H17   S    
C20   H39   S    
C86   H30   S    
C26   C54   A    
C61   C65   A    
C76   H16   S    
C39   C51   A    
C28   H4    S    
O17   V1    S    
C82   C94   A    
C31   C35   A    
C96   H23   S    
O7    V3    S    
C7    C81   S    
O19   V3    S    
C89   H26   S    
O8    V4    S    
C108  C111  A    
C44   C48   A    
C12   O24   S    
C32   H8    S    
C27   C55   A    
C86   C90   A    
C60   C68   A    
C22   C54   A    
C30   C34   A    
C95   H24   S    
N1    C33   S    
C48   C80   A    
C98   C102  A    
C71   F7    S    
C49   C74   A    
O1    V4    S    
O13   C5    A    
C16   C52   A    
C6    C84   S    
O2    V3    S    
C99   C107  A    
C51   C76   A    
O3    V2    S    
C11   O23   S    
C38   C42   A    
C59   C71   A    
C58   C70   A    
C38   C65   A    
C29   C33   A    
O6    C2    A    
C26   H2    S    
C37   C66   A    
O10   V2    S    
C107  C108  A    
C92   H27   S    
O20   V4    S    
C111  C115  A    
C11   C43   A    
C39   C68   A    
C85   C101  A    
C40   C52   A    
C91   H28   S    
C93   H22   S    
C37   C41   A    
C18   C34   A    
C70   C74   A    
C25   H1    S    
C88   C104  A    
C3    C54   S    
C69   C73   A    
C112  C116  A    
C9    C41   A    
O6    V2    S    
C10   C42   A    
O18   V2    S    
C71   C75   A    
C30   H6    S    
N2    C14   A    
C4    C53   S    
C27   H3    S    
N4    C36   S    
C81   C93   A    
C46   C78   A    
O5    V1    S    
C45   C77   A    
O15   C7    A    
C110  F2    S    
O16   V4    S    
C116  H20   S    
C47   H11   S    
C57   C62   A    
C94   C98   A    
C85   C89   A    
C69   F5    S    
C98   C106  A    
C8    C82   S    
C101  C113  A    
C10   O22   S    
C63   C67   A    
C13   C49   A    
C96   C100  A    
N3    C15   A    
C112  F4    S    
C2    C55   S    
C115  H19   S    
C25   C29   A    
C5    C83   S    
C13   O26   S    
C87   C103  A    
C42   C46   A    
C27   C31   A    
C99   C103  A    
C28   C32   A    
C19   H40   S    
C9    N1    A    
C23   H36   S    
C88   C92   A    
C47   C79   A    
C84   C92   A    
C83   C95   A    
N1    C13   A    
O2    C6    A    
C39   C43   A    
C15   O28   S    
C19   C35   A    
C43   C47   A    
C52   C75   A    
C72   F8    S    
C95   C99   A    
C1    C56   S    
O7    C3    A    
C18   H37   S    
C114  H18   S    
C25   C53   A    
C9    O21   S    
C110  C114  A    
C19   C23   A    
C64   C79   A    
C23   C55   A    
C38   C50   A    
C93   C97   A    
C40   C67   A    
C17   C21   A    
C37   C49   A    
C72   C76   A    
C88   H32   S    
C85   H29   S    
O12   C1    A    
N3    C35   S    
C70   F6    S    
N2    C34   S    
C41   C45   A    
C107  C112  A    
C102  C114  A    
C21   C53   A    
C81   C89   A    
C50   C73   A    
C97   C105  A    
C79   F11   S    
C105  C110  A    
O16   C8    A    
C60   C63   A    
C48   H12   S    
C20   C24   A    
