data_str_m4_o1_o24_f0_acs.sym.49
_audit_creation_date              2012-12-11T14:52:40-0500
_audit_creation_method            fapswitch 2.2
_symmetry_space_group_name_H-M    P1
_symmetry_Int_Tables_number       1
_space_group_crystal_system       triclinic
_cell_length_a                    19.010158
_cell_length_b                    11.035653
_cell_length_c                    18.880993
_cell_angle_alpha                 90.377397
_cell_angle_beta                  90.647451
_cell_angle_gamma                 90.602912
_cell_volume                      3960.47296687

loop_
_atom_site_label
_atom_site_type_symbol
_atom_type_description
_atom_site_fract_x
_atom_site_fract_y
_atom_site_fract_z
_atom_type_partial_charge
C1    C     C_R   0.275875 0.036593 0.856042 0.586796
C2    C     C_R   0.694437 0.532023 0.035243 -0.020757
C3    C     C_3   0.036160 0.321262 0.062668 -0.024402
C4    C     C_2   0.366386 0.826488 0.988205 0.246408
C5    C     C_2   0.663824 0.826099 0.000946 0.246281
C6    C     C_2   0.866385 0.326488 0.988205 0.246404
C7    C     C_2   0.163823 0.326099 0.000945 0.246279
C8    C     C_2   0.120705 0.630094 0.573706 0.604073
C9    C     C_2   0.879091 0.635795 0.426707 0.604518
C10   C     C_2   0.620705 0.130093 0.573706 0.604072
C11   C     C_2   0.379091 0.135795 0.426707 0.604519
C12   C     C_2   0.147457 0.741816 0.427098 0.642634
C13   C     C_R   0.800532 0.026988 0.962072 0.010781
C14   C     C_2   0.853244 0.743644 0.574588 0.641161
C15   C     C_2   0.647457 0.241816 0.427098 0.642634
C16   C     C_2   0.353244 0.243644 0.574588 0.641161
C17   C     C_2   0.373470 0.520340 0.420907 0.262216
C18   C     C_2   0.626823 0.513631 0.578391 0.256460
C19   C     C_2   0.873470 0.020340 0.420907 0.262216
C20   C     C_2   0.126823 0.013631 0.578391 0.256460
C21   C     C_2   0.464376 0.021506 0.076972 0.292274
C22   C     C_2   0.563336 0.036186 0.925229 0.251643
C23   C     C_2   0.964376 0.521508 0.076971 0.292258
C24   C     C_R   0.194436 0.032024 0.035243 -0.020759
C25   C     C_2   0.063335 0.536188 0.925230 0.251636
C26   C     C_2   0.563671 0.626982 0.914617 0.243104
C27   C     C_2   0.458695 0.613258 0.058593 0.275886
C28   C     C_2   0.063670 0.126981 0.914617 0.243103
C29   C     C_2   0.958695 0.113260 0.058595 0.275879
C30   C     C_2   0.352867 0.454411 0.924129 0.258891
C31   C     C_2   0.622674 0.495325 0.058749 0.231923
C32   C     C_2   0.852872 0.954414 0.924130 0.258909
C33   C     C_2   0.122674 0.995325 0.058749 0.231922
C34   C     C_2   0.146960 0.733135 0.073050 0.259112
C35   C     C_R   0.295966 0.515225 0.035691 -0.116502
C36   C     C_2   0.884929 0.686390 0.945514 0.208760
C37   C     C_2   0.646959 0.233133 0.073049 0.259108
C38   C     C_2   0.384926 0.186392 0.945512 0.208758
C39   C     C_R   0.707046 0.514189 0.963493 -0.127779
C40   C     C_R   0.795966 0.015224 0.035691 -0.116501
C41   C     C_R   0.207045 0.014190 0.963492 -0.127780
C42   C     C_R   0.245264 0.579543 0.074012 0.033031
C43   C     C_R   0.765731 0.565155 0.930540 0.050367
C44   C     C_R   0.745263 0.079543 0.074012 0.033030
C45   C     C_R   0.727504 0.041489 0.146123 0.534165
C46   C     C_R   0.265730 0.065157 0.930540 0.050368
C47   C     C_R   0.200354 0.659632 0.037616 0.004542
C48   C     C_R   0.818939 0.625349 0.972155 0.020993
C49   C     C_R   0.700353 0.159631 0.037616 0.004540
C50   C     C_R   0.318937 0.125350 0.972154 0.020991
C51   C     C_R   0.204715 0.670024 0.965350 -0.103705
C52   C     C_R   0.809536 0.630387 0.044259 -0.063454
C53   C     C_R   0.704715 0.170022 0.965349 -0.103703
C54   C     C_R   0.309535 0.130388 0.044259 -0.063455
C55   C     C_R   0.253345 0.603978 0.926437 0.065934
C56   C     C_R   0.775875 0.536592 0.856042 0.586796
C57   C     C_R   0.748069 0.589451 0.076782 0.040738
C58   C     C_R   0.753345 0.103976 0.926436 0.065933
C59   C     C_R   0.248069 0.089452 0.076782 0.040738
C60   C     C_R   0.498996 0.719722 0.536672 -0.125270
C61   C     C_R   0.507526 0.719202 0.464851 -0.125460
C62   C     C_R   0.998996 0.219721 0.536672 -0.125271
C63   C     C_R   0.007526 0.219202 0.464851 -0.125460
C64   C     C_R   0.510743 0.828313 0.427549 0.013226
C65   C     C_R   0.491097 0.829088 0.573289 0.018705
C66   C     C_R   0.010743 0.328313 0.427549 0.013226
C67   C     C_R   0.227504 0.541489 0.146123 0.534163
C68   C     C_R   0.991096 0.329088 0.573289 0.018705
C69   C     C_R   0.505554 0.938480 0.464055 -0.098042
C70   C     C_R   0.492457 0.938647 0.536297 -0.098267
C71   C     C_R   0.005554 0.438480 0.464055 -0.098042
C72   C     C_R   0.992457 0.438647 0.536297 -0.098267
C73   C     C_R   0.468971 0.822093 0.855684 0.592449
C74   C     C_R   0.559838 0.816722 0.137549 0.548445
C75   C     C_R   0.968970 0.322093 0.855684 0.592451
C76   C     C_R   0.059838 0.316722 0.137549 0.548446
C77   C     C_R   0.188149 0.624226 0.534322 0.003582
C78   C     C_3   0.539501 0.728715 0.960968 -0.040658
C79   C     C_R   0.811624 0.627203 0.465962 0.003627
C80   C     C_R   0.688149 0.124226 0.534322 0.003582
C81   C     C_R   0.311624 0.127203 0.465962 0.003628
C82   C     C_R   0.193534 0.651253 0.462309 0.002256
C83   C     C_R   0.806567 0.652603 0.538411 -0.000242
C84   C     C_R   0.693534 0.151253 0.462309 0.002255
C85   C     C_R   0.306567 0.152603 0.538411 -0.000242
C86   C     C_R   0.248531 0.597123 0.423568 -0.046745
C87   C     C_R   0.751602 0.596125 0.576656 -0.045560
C88   C     C_R   0.748531 0.097123 0.423568 -0.046745
C89   C     C_3   0.489800 0.723739 0.024965 -0.031245
C90   C     C_R   0.251602 0.096125 0.576656 -0.045560
C91   C     C_R   0.309316 0.556606 0.459295 -0.031194
C92   C     C_R   0.690735 0.553894 0.540463 -0.030892
C93   C     C_R   0.809316 0.056606 0.459295 -0.031195
C94   C     C_R   0.190735 0.053894 0.540463 -0.030892
C95   C     C_R   0.310447 0.559700 0.532969 -0.097661
C96   C     C_R   0.689306 0.558661 0.466798 -0.096132
C97   C     C_R   0.810447 0.059700 0.532969 -0.097661
C98   C     C_R   0.189306 0.058662 0.466798 -0.096132
C99   C     C_R   0.250332 0.592353 0.570740 -0.003208
C100  C     C_3   0.039500 0.228715 0.960968 -0.040658
C101  C     C_R   0.749347 0.593577 0.429239 -0.002103
C102  C     C_R   0.750332 0.092353 0.570740 -0.003208
C103  C     C_R   0.249347 0.093578 0.429239 -0.002102
C104  C     C_R   0.261365 0.639601 0.852517 0.609321
C105  C     C_R   0.738610 0.636181 0.148337 0.562230
C106  C     C_R   0.761365 0.139600 0.852516 0.609317
C107  C     C_R   0.238610 0.136181 0.148337 0.562231
C108  C     C_R   0.270700 0.048621 0.646743 0.559265
C109  C     C_R   0.729282 0.048703 0.353303 0.546364
C110  C     C_R   0.770700 0.548621 0.646743 0.559266
C111  C     C_3   0.989800 0.223740 0.024965 -0.031247
C112  C     C_R   0.229282 0.548703 0.353303 0.546364
C113  C     C_R   0.467796 0.823142 0.646025 0.564788
C114  C     C_R   0.532706 0.822916 0.354299 0.566769
C115  C     C_R   0.967795 0.323142 0.646025 0.564788
C116  C     C_R   0.032706 0.322916 0.354299 0.566769
C117  C     C_R   0.259962 0.636512 0.643312 0.604301
C118  C     C_R   0.739885 0.636607 0.356728 0.597541
C119  C     C_R   0.759962 0.136512 0.643312 0.604300
C120  C     C_R   0.239885 0.136607 0.356728 0.597541
C121  C     C_3   0.490652 0.922335 0.030414 -0.023846
C122  C     C_R   0.300531 0.526989 0.962072 0.010782
C123  C     C_3   0.540041 0.927661 0.965788 -0.026899
C124  C     C_3   0.990651 0.422336 0.030414 -0.023850
C125  C     C_3   0.040040 0.427661 0.965788 -0.026903
C126  C     C_3   0.444918 0.824881 0.992888 -0.002535
C127  C     C_3   0.585574 0.826500 0.998070 -0.016935
C128  C     C_3   0.944917 0.324882 0.992889 -0.002536
C129  C     C_3   0.085573 0.326500 0.998070 -0.016934
C130  C     C_3   0.494599 0.829770 0.928933 -0.011434
C131  C     C_3   0.536160 0.821261 0.062668 -0.024408
C132  C     C_3   0.994599 0.329770 0.928933 -0.011434
Cr1   Cr    Cr6+3 0.229630 0.835900 0.747350 1.076341
Cr2   Cr    Cr6+3 0.614200 0.677120 0.250660 1.118986
Cr3   Cr    Cr6+3 0.885800 0.177120 0.749340 1.089763
Cr4   Cr    Cr6+3 0.114200 0.177120 0.250660 1.118985
Cr5   Cr    Cr6+3 0.770370 0.835900 0.252650 1.076174
Cr6   Cr    Cr6+3 0.729630 0.335900 0.747350 1.076340
Cr7   Cr    Cr6+3 0.270370 0.335900 0.252650 1.076173
Cr8   Cr    Cr6+3 0.387410 0.989850 0.750850 1.066490
Cr9   Cr    Cr6+3 0.612590 0.989850 0.249150 1.075357
Cr10  Cr    Cr6+3 0.887410 0.489850 0.750850 1.066490
Cr11  Cr    Cr6+3 0.112590 0.489850 0.249150 1.075361
Cr12  Cr    Cr6+3 0.385800 0.677120 0.749340 1.089760
H1    H     H_    0.359215 0.540858 0.560847 0.202626
H2    H     H_    0.849712 0.676868 0.075269 0.209837
H3    H     H_    0.670317 0.234518 0.939762 0.161317
H4    H     H_    0.349712 0.176871 0.075267 0.209832
H5    H     H_    0.495280 0.633121 0.562841 0.195018
H6    H     H_    0.514372 0.632292 0.439202 0.196243
H7    H     H_    0.995279 0.133121 0.562841 0.195018
H8    H     H_    0.014371 0.132292 0.439202 0.196243
H9    H     H_    0.512235 0.023609 0.437151 0.205526
H10   H     H_    0.482774 0.023588 0.562869 0.204911
H11   H     H_    0.012235 0.523609 0.437151 0.205526
H12   H     H_    0.640509 0.538451 0.438741 0.199519
H13   H     H_    0.982774 0.523588 0.562869 0.204911
H14   H     H_    0.340195 0.827009 0.936966 0.053896
H15   H     H_    0.691125 0.828936 0.051554 0.047509
H16   H     H_    0.840194 0.327005 0.936966 0.053894
H17   H     H_    0.191125 0.328937 0.051554 0.047508
H18   H     H_    0.065405 0.566611 0.656652 0.345772
H19   H     H_    0.934717 0.574308 0.343473 0.346170
H20   H     H_    0.565406 0.066610 0.656652 0.345772
H21   H     H_    0.434717 0.074309 0.343473 0.346169
H22   H     H_    0.050176 0.797726 0.400965 0.376898
H23   H     H_    0.859215 0.040858 0.560847 0.202626
H24   H     H_    0.951002 0.800604 0.601387 0.375283
H25   H     H_    0.550176 0.297725 0.400965 0.376898
H26   H     H_    0.451002 0.300604 0.601387 0.375282
H27   H     H_    0.379815 0.542758 0.365482 0.136973
H28   H     H_    0.620375 0.534707 0.634110 0.137190
H29   H     H_    0.879815 0.042758 0.365482 0.136973
H30   H     H_    0.120375 0.034708 0.634111 0.137190
H31   H     H_    0.488998 0.109841 0.076317 0.194425
H32   H     H_    0.546305 0.125592 0.940541 0.165683
H33   H     H_    0.988996 0.609844 0.076313 0.194423
H34   H     H_    0.140508 0.038451 0.438741 0.199519
H35   H     H_    0.046307 0.625593 0.940545 0.165672
H36   H     H_    0.538089 0.538939 0.917089 0.069431
H37   H     H_    0.469208 0.524087 0.037622 0.082069
H38   H     H_    0.038088 0.038939 0.917090 0.069432
H39   H     H_    0.969211 0.024086 0.037629 0.082080
H40   H     H_    0.404402 0.440952 0.947273 0.106733
H41   H     H_    0.583293 0.474049 0.019047 0.107897
H42   H     H_    0.904406 0.940961 0.947276 0.106740
H43   H     H_    0.083293 0.974049 0.019047 0.107895
H44   H     H_    0.159002 0.774520 0.124046 0.200675
H45   H     H_    0.329039 0.449806 0.062259 0.156086
H46   H     H_    0.895592 0.704576 0.890863 0.208326
H47   H     H_    0.659000 0.274518 0.124045 0.200675
H48   H     H_    0.395581 0.204598 0.890862 0.208334
H49   H     H_    0.669123 0.462304 0.932201 0.132881
H50   H     H_    0.829040 0.949808 0.062259 0.156092
H51   H     H_    0.169122 0.962305 0.932201 0.132882
H52   H     H_    0.170318 0.734521 0.939763 0.161315
O1    O     O_R   0.214270 0.709000 0.827470 -0.510558
O2    O     O_R   0.543270 0.717630 0.330160 -0.519426
O3    O     O_R   0.956730 0.217630 0.669840 -0.520630
O4    O     O_R   0.043270 0.217630 0.330160 -0.519426
O5    O     O_R   0.320620 0.625640 0.672920 -0.492422
O6    O     O_R   0.679380 0.625640 0.327080 -0.501022
O7    O     O_R   0.820620 0.125640 0.672920 -0.492422
O8    O     O_R   0.179380 0.125640 0.327080 -0.501022
O9    O     O_3   0.334280 0.834290 0.749180 -0.307542
O10   O     O_3   0.665720 0.834290 0.250820 -0.320628
O11   O     O_3   0.834280 0.334290 0.749180 -0.307542
O12   O     O_R   0.785730 0.709000 0.172530 -0.522792
O13   O     O_3   0.165720 0.334290 0.250820 -0.320628
O14   O     O_R   0.236160 0.958490 0.823130 -0.500195
O15   O     O_R   0.763840 0.958490 0.176870 -0.497991
O16   O     O_R   0.736160 0.458490 0.823130 -0.500194
O17   O     O_R   0.263840 0.458490 0.176870 -0.497992
O18   O     O_R   0.332080 0.075470 0.831280 -0.542836
O19   O     O_R   0.667920 0.075470 0.168720 -0.542652
O20   O     O_R   0.832080 0.575470 0.831280 -0.542836
O21   O     O_R   0.167920 0.575470 0.168720 -0.542650
O22   O     O_R   0.446300 0.918110 0.826620 -0.508045
O23   O     O_R   0.714270 0.209000 0.827470 -0.510559
O24   O     O_R   0.553700 0.918110 0.173380 -0.471960
O25   O     O_R   0.946300 0.418110 0.826620 -0.508048
O26   O     O_R   0.053700 0.418110 0.173380 -0.471954
O27   O     O_R   0.457110 0.716200 0.831760 -0.511309
O28   O     O_R   0.542890 0.716200 0.168240 -0.423979
O29   O     O_R   0.957110 0.216200 0.831760 -0.511306
O30   O     O_R   0.042890 0.216200 0.168240 -0.423984
O31   O     O_R   0.320980 0.624310 0.823030 -0.475372
O32   O     O_R   0.679020 0.624310 0.176970 -0.461631
O33   O     O_R   0.820980 0.124310 0.823030 -0.475374
O34   O     O_R   0.285730 0.209000 0.172530 -0.522792
O35   O     O_R   0.179020 0.124310 0.176970 -0.461631
O36   O     O_R   0.213890 0.710430 0.665540 -0.480689
O37   O     O_R   0.786110 0.710430 0.334460 -0.478700
O38   O     O_R   0.713890 0.210430 0.665540 -0.480689
O39   O     O_R   0.286110 0.210430 0.334460 -0.478700
O40   O     O_R   0.235810 0.959820 0.673020 -0.513474
O41   O     O_R   0.764190 0.959820 0.326980 -0.512936
O42   O     O_R   0.735810 0.459820 0.673020 -0.513474
O43   O     O_R   0.264190 0.459820 0.326980 -0.512937
O44   O     O_R   0.331700 0.076900 0.669350 -0.480061
O45   O     O_R   0.445950 0.919440 0.676520 -0.504877
O46   O     O_R   0.668300 0.076900 0.330650 -0.483875
O47   O     O_R   0.831700 0.576900 0.669350 -0.480060
O48   O     O_R   0.168300 0.576900 0.330650 -0.483875
O49   O     O_2   0.331619 0.827459 0.042066 -0.451392
O50   O     O_2   0.697103 0.822800 0.946182 -0.414803
O51   O     O_2   0.831618 0.327463 0.042066 -0.451390
O52   O     O_2   0.197102 0.322800 0.946182 -0.414805
O53   O     O_2   0.078405 0.710247 0.562878 -0.412403
O54   O     O_R   0.108931 0.547393 0.628338 -0.679175
O55   O     O_2   0.921244 0.717714 0.438246 -0.410158
O56   O     O_R   0.554050 0.919440 0.323480 -0.497908
O57   O     O_R   0.891140 0.553407 0.371555 -0.683280
O58   O     O_2   0.578405 0.210247 0.562878 -0.412403
O59   O     O_R   0.608931 0.047393 0.628338 -0.679176
O60   O     O_2   0.421244 0.217715 0.438246 -0.410158
O61   O     O_R   0.391140 0.053408 0.371555 -0.683281
O62   O     O_2   0.174688 0.820491 0.390934 -0.516868
O63   O     O_R   0.074298 0.731573 0.428903 -0.611098
O64   O     O_2   0.826548 0.822345 0.611027 -0.506143
O65   O     O_R   0.926338 0.734102 0.572972 -0.612041
O66   O     O_2   0.674688 0.320491 0.390934 -0.516868
O67   O     O_R   0.945950 0.419440 0.676520 -0.504876
O68   O     O_R   0.574298 0.231573 0.428903 -0.611098
O69   O     O_2   0.326548 0.322345 0.611027 -0.506143
O70   O     O_R   0.426338 0.234102 0.572972 -0.612041
O71   O     O_2   0.420679 0.466477 0.451183 -0.459477
O72   O     O_2   0.579801 0.458094 0.547360 -0.457867
O73   O     O_2   0.920679 0.966477 0.451183 -0.459477
O74   O     O_2   0.079801 0.958095 0.547360 -0.457867
O75   O     O_2   0.420259 0.999178 0.121628 -0.434266
O76   O     O_2   0.599213 0.023637 0.872574 -0.440260
O77   O     O_2   0.920261 0.499180 0.121630 -0.434264
O78   O     O_R   0.054050 0.419440 0.323480 -0.497908
O79   O     O_2   0.099209 0.523641 0.872573 -0.440256
O80   O     O_2   0.607136 0.646187 0.868849 -0.430496
O81   O     O_2   0.420942 0.623507 0.110075 -0.421456
O82   O     O_2   0.107135 0.146186 0.868849 -0.430496
O83   O     O_2   0.920938 0.123513 0.110075 -0.421457
O84   O     O_2   0.338128 0.405863 0.867490 -0.449373
O85   O     O_2   0.606803 0.476072 0.119971 -0.457158
O86   O     O_2   0.838137 0.905863 0.867491 -0.449365
O87   O     O_2   0.106803 0.976071 0.119971 -0.457159
O88   O     O_2   0.088610 0.745187 0.046695 -0.552556
O89   O     O_R   0.456730 0.717630 0.669840 -0.520631
O90   O     O_2   0.929412 0.726957 0.986539 -0.592839
O91   O     O_2   0.588609 0.245187 0.046693 -0.552556
O92   O     O_2   0.429417 0.226939 0.986535 -0.592841

loop_
_geom_bond_atom_site_label_1
_geom_bond_atom_site_label_2
_ccdc_geom_bond_type
C44   C49   A    
C96   C101  A    
C57   C105  S    
C108  O40   A    
C24   C41   A    
C107  O35   A    
H26   O70   S    
C23   O77   D    
C104  O1    A    
C13   C32   S    
C83   C87   A    
C103  C120  S    
C17   C91   S    
C53   H3    S    
C5    O50   D    
C80   C84   A    
C19   O73   D    
Cr8   O9    S    
Cr9   O19   S    
Cr11  O26   S    
C33   O87   D    
C2    C57   A    
C38   O92   D    
C22   C123  S    
C27   O81   D    
C87   C110  S    
C40   H50   S    
C3    C124  S    
C39   H49   S    
C100  C111  S    
C8    O54   S    
C50   C54   A    
C66   C116  S    
Cr5   O15   S    
C36   H46   S    
C101  C118  S    
C11   O61   S    
C54   H4    S    
C9    O55   D    
C56   O16   A    
C34   O88   D    
C86   C91   A    
C120  O39   A    
Cr3   O3    S    
C116  O4    A    
C95   C99   A    
C1    C46   S    
Cr2   O10   S    
Cr11  O21   S    
C94   C98   A    
Cr1   O9    S    
Cr10  O47   S    
C111  C128  S    
C74   O28   A    
C92   C96   A    
C37   C49   S    
Cr8   O45   S    
C9    C79   S    
C105  O32   A    
Cr6   O16   S    
H19   O57   S    
C35   C42   A    
C28   H38   S    
Cr9   O10   S    
Cr12  O27   S    
Cr4   O30   S    
C15   O68   S    
C113  O89   A    
C88   C93   A    
C79   C101  A    
C123  C127  S    
C110  O47   A    
C4    H14   S    
C108  O44   A    
C3    C111  S    
C21   H31   S    
C95   H1    S    
C98   C103  A    
Cr11  O78   S    
C52   H2    S    
C41   C46   A    
Cr12  O31   S    
C90   C94   A    
C12   O63   S    
C36   O90   D    
C98   H34   S    
C29   H39   S    
C61   H6    S    
Cr10  O25   S    
C97   C102  A    
C19   C93   S    
Cr8   O18   S    
C89   C126  S    
C28   C100  S    
C82   C86   A    
C106  O23   A    
Cr12  O89   S    
C63   C66   A    
C71   H11   S    
C35   H45   S    
C70   H10   S    
C74   C131  S    
C56   O20   A    
C21   C121  S    
Cr1   O14   S    
C18   H28   S    
C37   O91   D    
C118  O6    A    
C12   O62   D    
H24   O65   S    
C121  C131  S    
Cr8   O44   S    
C32   O86   D    
C78   C127  S    
C128  C132  S    
C7    C129  S    
C29   C111  S    
Cr2   O6    S    
C40   C44   A    
C54   C59   A    
C11   C81   S    
C78   C89   S    
C39   C43   A    
C63   H8    S    
Cr4   O35   S    
C20   H30   S    
C8    O53   D    
C121  C123  S    
C62   H7    S    
C73   O27   A    
Cr7   O43   S    
C10   O59   S    
C97   H23   S    
C30   C122  S    
C6    O51   D    
C67   O21   A    
C64   C114  S    
C68   C72   A    
Cr11  O13   S    
Cr6   O42   S    
C126  C130  S    
C10   C80   S    
C100  C129  S    
Cr9   O46   S    
C47   C51   A    
C13   C58   A    
C8    C77   S    
C5    H15   S    
Cr10  O11   S    
C76   O30   A    
C7    O52   D    
H21   O61   S    
H25   O68   S    
C59   C107  S    
C72   H13   S    
Cr12  O5    S    
C80   C102  A    
C60   C61   A    
C58   C106  S    
Cr1   O40   S    
C84   C88   A    
C61   C64   A    
C86   C112  S    
C19   H29   S    
C77   C82   A    
C118  O37   A    
C62   C63   A    
C4    C126  S    
C14   O65   S    
C16   O70   S    
C25   H35   S    
C99   C117  S    
C7    H17   S    
C2    C39   A    
C119  O38   A    
C22   H32   S    
C66   C71   A    
C112  O48   A    
C53   C58   A    
C43   C48   A    
C114  O56   A    
C104  O31   A    
C31   H41   S    
Cr6   O38   S    
C17   H27   S    
C11   O60   D    
C119  O7    A    
C33   H43   S    
C26   C78   S    
C64   C69   A    
C116  O78   A    
C3    C76   S    
C15   C84   S    
C115  O67   A    
C27   H37   S    
C62   C68   A    
C88   C109  S    
C45   O19   A    
H18   O54   S    
Cr8   O22   S    
C37   H47   S    
Cr6   O23   S    
C27   C89   S    
C38   H48   S    
C123  C130  S    
Cr7   O39   S    
C16   C85   S    
C120  O8    A    
C18   C92   S    
C67   O17   A    
H20   O59   S    
C75   O29   A    
Cr10  O67   S    
C96   H12   S    
Cr5   O37   S    
C12   C82   S    
C20   O74   D    
C124  C128  S    
Cr4   O8    S    
C113  O45   A    
C75   C132  S    
C21   O75   D    
C105  O12   A    
Cr3   O11   S    
Cr12  O9    S    
C81   C103  A    
C22   O76   D    
Cr2   O2    S    
C20   C94   S    
C73   C130  S    
C41   H51   S    
Cr2   O28   S    
Cr1   O1    S    
C5    C127  S    
Cr3   O29   S    
C31   O85   D    
C1    O14   A    
C3    C129  S    
C30   H40   S    
C114  O2    A    
C65   C113  S    
C35   C122  A    
C9    O57   S    
C44   C45   S    
C16   O69   D    
C26   O80   D    
C60   C65   A    
Cr3   O7    S    
Cr6   O11   S    
C100  C132  S    
C28   O82   D    
C23   C124  S    
C38   C50   S    
C26   H36   S    
C29   O83   D    
C25   O79   D    
C46   C50   A    
C117  O36   A    
C30   O84   D    
C24   C33   S    
C89   C131  S    
C106  O33   A    
C32   H42   S    
C51   H52   S    
C6    H16   S    
C76   O26   A    
C85   C90   A    
C78   C130  S    
Cr1   O36   S    
C90   C108  S    
C121  C126  S    
Cr9   O24   S    
C15   O66   D    
C14   C83   S    
H22   O63   S    
C18   O72   D    
C117  O5    A    
C125  C132  S    
C42   C67   S    
C110  O42   A    
C115  O3    A    
C109  O46   A    
Cr7   O17   S    
C24   C59   A    
C49   C53   A    
C55   C104  S    
C25   C125  S    
C60   H5    S    
Cr10  O20   S    
C93   C97   A    
Cr5   O10   S    
C73   O22   A    
C36   C48   S    
Cr7   O34   S    
C51   C55   A    
C42   C47   A    
Cr5   O41   S    
C69   C70   A    
C112  O43   A    
C127  C131  S    
C4    O49   D    
C23   H33   S    
C69   H9    S    
C52   C57   A    
C13   C40   A    
C68   C115  S    
C6    C128  S    
Cr4   O13   S    
C79   C83   A    
C125  C129  S    
C43   C56   S    
C48   C52   A    
C71   C72   A    
Cr4   O4    S    
C75   O25   A    
C91   C95   A    
C17   O71   D    
C109  O41   A    
Cr3   O33   S    
C107  O34   A    
C74   O24   A    
C1    O18   A    
Cr9   O56   S    
C45   O15   A    
Cr11  O48   S    
C2    C31   S    
C14   O64   D    
C34   C47   S    
C77   C99   A    
C10   O58   D    
C87   C92   A    
Cr7   O13   S    
C55   C122  A    
C34   H44   S    
C81   C85   A    
C102  C119  S    
C65   C70   A    
Cr2   O32   S    
C124  C125  S    
Cr5   O12   S    
