data_str_m2_o10_o29_f0_pcu.sym.33
_audit_creation_date              2012-10-26T20:17:37-0400
_audit_creation_method            fapswitch 2.2
_symmetry_space_group_name_H-M    P1
_symmetry_Int_Tables_number       1
_space_group_crystal_system       triclinic
_cell_length_a                    27.797764
_cell_length_b                    8.669616
_cell_length_c                    7.498237
_cell_angle_alpha                 103.31839
_cell_angle_beta                  94.814879
_cell_angle_gamma                 93.423961
_cell_volume                      1746.40504554

loop_
_atom_site_label
_atom_site_type_symbol
_atom_type_description
_atom_site_fract_x
_atom_site_fract_y
_atom_site_fract_z
_atom_type_partial_charge
C1    C     C_R   0.498471 0.199666 0.452919 0.556469
C2    C     C_R   0.870366 0.369596 0.529553 0.026145
C3    C     C_R   0.354701 0.499218 0.504336 0.013449
C4    C     C_R   0.645296 0.500587 0.495622 0.013508
C5    C     C_R   0.972573 0.368099 0.537140 0.018820
C6    C     C_R   0.027398 0.631015 0.462618 0.018817
C7    C     C_R   0.976143 0.630345 0.458688 0.019213
C8    C     C_R   0.023829 0.368774 0.541071 0.019207
C9    C     C_R   0.949077 0.498946 0.496112 0.034568
C10   C     C_R   0.050894 0.500170 0.503643 0.034572
C11   C     C_R   0.943654 0.240529 0.572913 -0.146322
C12   C     C_R   0.501529 0.800334 0.547081 0.556478
C13   C     C_R   0.056316 0.758579 0.426843 -0.146341
C14   C     C_R   0.893699 0.241615 0.569029 -0.112778
C15   C     C_R   0.106272 0.757522 0.430791 -0.112786
C16   C     C_R   0.407573 0.499537 0.501330 0.557430
C17   C     C_R   0.592427 0.500443 0.498665 0.557422
C18   C     C_R   0.049286 0.242105 0.581434 -0.145513
C19   C     C_R   0.950688 0.757033 0.418352 -0.145501
C20   C     C_2   0.497682 0.031273 0.426933 -0.128572
C21   C     C_2   0.502319 0.968727 0.573067 -0.128567
C22   C     C_R   0.176670 0.374319 0.547960 0.399985
C23   C     C_R   0.102153 0.500655 0.507071 -0.025731
C24   C     C_R   0.823303 0.624779 0.451701 0.399983
C25   C     C_R   0.180093 0.627399 0.473472 0.401825
C26   C     C_R   0.819880 0.371788 0.526430 0.401861
C27   C     C_R   0.283622 0.511549 0.672937 -0.049066
C28   C     C_R   0.716335 0.487131 0.326753 -0.049050
C29   C     C_R   0.333724 0.511623 0.670806 -0.127416
C30   C     C_R   0.666239 0.487318 0.328941 -0.127374
C31   C     C_R   0.324664 0.486485 0.340299 -0.134099
C32   C     C_R   0.675364 0.513884 0.659822 -0.134090
C33   C     C_R   0.274631 0.486587 0.342898 -0.050552
C34   C     C_R   0.897819 0.498467 0.492688 -0.025738
C35   C     C_R   0.725390 0.513461 0.657167 -0.050627
C36   C     C_R   0.253958 0.499302 0.509076 0.241504
C37   C     C_R   0.746025 0.499913 0.490772 0.241666
C38   C     C_1   0.451668 0.346994 0.927686 0.429101
C39   C     C_1   0.548341 0.652972 0.072310 0.429123
C40   C     C_R   0.126119 0.372142 0.546992 0.025109
C41   C     C_R   0.873853 0.626968 0.452716 0.025105
C42   C     C_R   0.099287 0.244059 0.584048 -0.117041
C43   C     C_R   0.900686 0.755062 0.415684 -0.117036
C44   C     C_R   0.129606 0.629550 0.470274 0.026156
Cu1   Cu    Cu3+1 0.505380 0.517380 0.684380 0.995753
Cu2   Cu    Cu3+1 0.494620 0.482620 0.315620 0.995748
H1    H     H_    0.339740 0.476666 0.209932 0.135540
H2    H     H_    0.267821 0.521810 0.801937 0.131910
H3    H     H_    0.873384 0.141051 0.597874 0.174573
H4    H     H_    0.126587 0.858090 0.401963 0.174606
H5    H     H_    0.958188 0.136882 0.605041 0.105975
H6    H     H_    0.041780 0.862193 0.394659 0.106003
H7    H     H_    0.031923 0.138462 0.612153 0.104421
H8    H     H_    0.968054 0.860712 0.387711 0.104396
H9    H     H_    0.493266 0.958559 0.286637 0.139561
H10   H     H_    0.506734 0.041440 0.713362 0.139565
H11   H     H_    0.660317 0.524420 0.790367 0.135608
H12   H     H_    0.251837 0.476680 0.215705 0.135850
H13   H     H_    0.748211 0.523842 0.784473 0.135775
H14   H     H_    0.116867 0.143928 0.615568 0.164189
H15   H     H_    0.883107 0.855204 0.384178 0.164174
H16   H     H_    0.644007 0.476876 0.200302 0.137685
H17   H     H_    0.355934 0.521601 0.799311 0.137778
H18   H     H_    0.732112 0.476267 0.197591 0.131819
N1    N     N_R   0.202481 0.500650 0.511119 -0.400176
N2    N     N_R   0.797495 0.498501 0.488668 -0.400200
N3    N     N_2   0.486510 0.456430 0.038510 -0.203426
N4    N     N_2   0.513490 0.543570 0.961490 -0.203433
N5    N     N_1   0.422376 0.254888 0.837262 -0.327045
N6    N     N_1   0.577642 0.745048 0.162731 -0.326933
O1    O     O_R   0.503500 0.286120 0.619780 -0.506702
O2    O     O_2   0.800153 0.748519 0.416040 -0.475256
O3    O     O_2   0.793295 0.247990 0.560005 -0.471236
O4    O     O_2   0.206677 0.751285 0.440096 -0.471267
O5    O     O_R   0.496500 0.713880 0.380220 -0.506702
O6    O     O_R   0.494410 0.256780 0.308360 -0.505313
O7    O     O_R   0.505590 0.743220 0.691640 -0.505302
O8    O     O_R   0.434810 0.514700 0.655690 -0.507607
O9    O     O_R   0.565190 0.485300 0.344310 -0.507625
O10   O     O_R   0.425720 0.485350 0.344280 -0.515383
O11   O     O_R   0.574280 0.514650 0.655720 -0.515388
O12   O     O_2   0.199814 0.250514 0.583447 -0.475245

loop_
_geom_bond_atom_site_label_1
_geom_bond_atom_site_label_2
_ccdc_geom_bond_type
C27   H2    S    
C29   H17   S    
C33   H12   S    
Cu1   O1    S    
C39   N4    S    
C33   C36   A    
Cu2   O6    S    
Cu1   Cu2   S    
C24   O2    S    
C1    O1    A    
C22   O12   S    
C35   C37   A    
C15   C44   A    
C5    C11   A    
C18   C42   A    
Cu2   O9    S    
C11   C14   A    
C14   H3    S    
C27   C29   A    
C23   C40   A    
C17   O9    A    
C26   O3    S    
C35   H13   S    
C25   O4    S    
C15   H4    S    
C3    C29   A    
C18   H7    S    
C31   C33   A    
Cu1   O8    S    
C17   O11   A    
C24   N2    A    
C2    C34   A    
C40   C42   A    
C38   N5    T    
C31   H1    S    
C37   N2    S    
C24   C41   A    
C41   C43   A    
C34   C41   A    
C32   H11   S    
C20   H9    S    
C25   C44   A    
Cu2   O5    S    
C19   C43   A    
N3    N4    D    
C26   N2    A    
C32   C35   A    
C25   N1    A    
C42   H14   S    
C36   N1    S    
C12   C21   S    
C8    C18   A    
C23   C44   A    
C16   O10   A    
C22   N1    A    
C5    C9    A    
C5    C8    A    
C13   H6    S    
C22   C40   A    
C12   O7    A    
Cu1   N4    S    
C2    C26   A    
C38   N3    S    
C3    C31   A    
C4    C32   A    
C4    C17   S    
C28   H18   S    
C19   H8    S    
C7    C19   A    
C13   C15   A    
C9    C34   A    
C10   C23   A    
C43   H15   S    
C7    C9    A    
C1    C20   S    
C1    O6    A    
Cu1   O11   S    
C6    C10   A    
C21   H10   S    
C6    C7    A    
C27   C36   A    
C30   H16   S    
Cu2   N3    S    
C6    C13   A    
Cu2   O10   S    
C28   C37   A    
C28   C30   A    
C39   N6    T    
C16   O8    A    
C2    C14   A    
C11   H5    S    
C20   C21   D    
C8    C10   A    
C12   O5    A    
Cu1   O7    S    
C4    C30   A    
C3    C16   S    
