data_str_m4_o22_o22_f0_acs.sym.79
_audit_creation_date              2012-12-11T15:07:08-0500
_audit_creation_method            fapswitch 2.2
_symmetry_space_group_name_H-M    P1
_symmetry_Int_Tables_number       1
_space_group_crystal_system       monoclinic
_cell_length_a                    19.625815
_cell_length_b                    11.40453
_cell_length_c                    18.713012
_cell_angle_alpha                 90.0
_cell_angle_beta                  89.835808
_cell_angle_gamma                 90.0
_cell_volume                      4188.38895357

loop_
_atom_site_label
_atom_site_type_symbol
_atom_type_description
_atom_site_fract_x
_atom_site_fract_y
_atom_site_fract_z
_atom_type_partial_charge
C1    C     C_R   0.769549 0.492204 0.632785 0.580897
C2    C     C_R   0.230451 0.492203 0.367215 0.580896
C3    C     C_R   0.269549 0.992203 0.632785 0.580896
C4    C     C_R   0.730451 0.992204 0.367215 0.580896
C5    C     C_3   0.813429 0.091173 0.447701 0.098278
C6    C     C_3   0.186571 0.091173 0.552299 0.098278
C7    C     C_3   0.313429 0.591173 0.447701 0.098278
C8    C     C_3   0.686571 0.591174 0.552299 0.098278
C9    C     C_3   0.743488 0.031887 0.441460 0.078233
C10   C     C_3   0.256512 0.031887 0.558540 0.078233
C11   C     C_3   0.243488 0.531887 0.441460 0.078233
C12   C     C_3   0.756512 0.531887 0.558540 0.078233
C13   C     C_3   0.761330 0.086914 0.575439 0.032348
C14   C     C_3   0.238670 0.086913 0.424561 0.032348
C15   C     C_3   0.261330 0.586913 0.575439 0.032348
C16   C     C_3   0.738670 0.586913 0.424561 0.032348
C17   C     C_3   0.753303 0.954796 0.571256 -0.239254
C18   C     C_3   0.246697 0.954796 0.428744 -0.239254
C19   C     C_3   0.253303 0.454796 0.571256 -0.239254
C20   C     C_3   0.746697 0.454796 0.428744 -0.239254
C21   C     C_3   0.824437 0.120883 0.527322 -0.201535
C22   C     C_3   0.175563 0.120882 0.472678 -0.201535
C23   C     C_3   0.324437 0.620883 0.527322 -0.201535
C24   C     C_3   0.675563 0.620883 0.472678 -0.201535
C25   C     C_3   0.001811 0.209555 0.459027 -0.241692
C26   C     C_3   0.998189 0.209555 0.540973 -0.241693
C27   C     C_3   0.501811 0.709555 0.459027 -0.241693
C28   C     C_3   0.498189 0.709555 0.540973 -0.241692
C29   C     C_3   0.065271 0.406421 0.472921 -0.218699
C30   C     C_3   0.934729 0.406421 0.527079 -0.218699
C31   C     C_3   0.565271 0.906421 0.472921 -0.218699
C32   C     C_3   0.434729 0.906421 0.527079 -0.218699
C33   C     C_3   0.943903 0.401119 0.445852 -0.257813
C34   C     C_3   0.056097 0.401119 0.554148 -0.257813
C35   C     C_3   0.443903 0.901119 0.445852 -0.257813
C36   C     C_3   0.556097 0.901119 0.554148 -0.257813
C37   C     C_3   0.010211 0.336427 0.430821 0.065143
C38   C     C_3   0.989789 0.336427 0.569179 0.065143
C39   C     C_3   0.510211 0.836427 0.430821 0.065143
C40   C     C_3   0.489789 0.836427 0.569179 0.065143
C41   C     C_3   0.819562 0.026554 0.046374 -0.235820
C42   C     C_3   0.180438 0.026554 0.953626 -0.235820
C43   C     C_3   0.319562 0.526554 0.046374 -0.235820
C44   C     C_3   0.680438 0.526553 0.953626 -0.235820
C45   C     C_R   0.775503 0.123650 0.648797 0.544162
C46   C     C_R   0.224497 0.123650 0.351203 0.544161
C47   C     C_R   0.275503 0.623650 0.648797 0.544162
C48   C     C_R   0.724497 0.623650 0.351203 0.544161
C49   C     C_3   0.818680 0.022948 0.965679 -0.234334
C50   C     C_3   0.181320 0.022948 0.034321 -0.234334
C51   C     C_3   0.318680 0.522948 0.965679 -0.234334
C52   C     C_3   0.681320 0.522948 0.034321 -0.234334
C53   C     C_3   0.691284 0.015778 0.032089 -0.228853
C54   C     C_3   0.308716 0.015778 0.967911 -0.228854
C55   C     C_3   0.191284 0.515778 0.032089 -0.228853
C56   C     C_3   0.808716 0.515778 0.967911 -0.228854
C57   C     C_3   0.744815 0.201978 0.061182 -0.251341
C58   C     C_3   0.255185 0.201978 0.938817 -0.251341
C59   C     C_3   0.244815 0.701978 0.061182 -0.251341
C60   C     C_3   0.755185 0.701978 0.938817 -0.251341
C61   C     C_3   0.749346 0.071426 0.075558 0.056918
C62   C     C_3   0.250654 0.071426 0.924442 0.056919
C63   C     C_3   0.249346 0.571425 0.075558 0.056918
C64   C     C_3   0.750654 0.571425 0.924442 0.056919
C65   C     C_3   0.760609 0.103852 0.936192 0.060854
C66   C     C_3   0.239391 0.103852 0.063808 0.060854
C67   C     C_3   0.260609 0.603852 0.936192 0.060854
C68   C     C_3   0.739391 0.603852 0.063808 0.060854
C69   C     C_3   0.693583 0.042262 0.950877 -0.251945
C70   C     C_3   0.306417 0.042263 0.049122 -0.251945
C71   C     C_3   0.193583 0.542262 0.950877 -0.251945
C72   C     C_3   0.806417 0.542263 0.049122 -0.251945
C73   C     C_3   0.757883 0.218936 0.980160 -0.233680
C74   C     C_3   0.242117 0.218936 0.019840 -0.233679
C75   C     C_3   0.257883 0.718936 0.980160 -0.233680
C76   C     C_3   0.742117 0.718936 0.019840 -0.233679
C77   C     C_3   0.998651 0.479538 0.040664 -0.236597
C78   C     C_3   0.001349 0.479537 0.959336 -0.236597
C79   C     C_3   0.498651 0.979537 0.040664 -0.236597
C80   C     C_3   0.501349 0.979538 0.959336 -0.236597
C81   C     C_3   0.067813 0.293043 0.025393 -0.233464
C82   C     C_3   0.932187 0.293043 0.974607 -0.233464
C83   C     C_3   0.567813 0.793043 0.025393 -0.233464
C84   C     C_3   0.432187 0.793043 0.974607 -0.233464
C85   C     C_3   0.947221 0.280990 0.055116 -0.252492
C86   C     C_3   0.052779 0.280990 0.944883 -0.252492
C87   C     C_3   0.447221 0.780990 0.055116 -0.252492
C88   C     C_3   0.552779 0.780990 0.944883 -0.252492
C89   C     C_R   0.969488 0.342743 0.645361 0.553755
C90   C     C_R   0.030512 0.342743 0.354639 0.553755
C91   C     C_R   0.469488 0.842743 0.645361 0.553755
C92   C     C_R   0.530512 0.842743 0.354639 0.553755
C93   C     C_3   0.010730 0.352287 0.069421 0.061736
C94   C     C_3   0.989270 0.352287 0.930579 0.061737
C95   C     C_3   0.510730 0.852287 0.069421 0.061737
C96   C     C_3   0.489270 0.852287 0.930579 0.061737
C97   C     C_R   0.759783 0.535113 0.848107 0.561638
C98   C     C_R   0.240217 0.535113 0.151893 0.561638
C99   C     C_R   0.259783 0.035113 0.848107 0.561638
C100  C     C_R   0.740217 0.035113 0.151893 0.561638
C101  C     C_R   0.774144 0.132600 0.858881 0.539578
C102  C     C_R   0.225856 0.132600 0.141119 0.539578
C103  C     C_R   0.274144 0.632600 0.858881 0.539578
C104  C     C_R   0.725856 0.632600 0.141119 0.539578
C105  C     C_R   0.967840 0.353553 0.854116 0.543251
C106  C     C_R   0.032160 0.353554 0.145884 0.543251
C107  C     C_R   0.467840 0.853553 0.854116 0.543251
C108  C     C_R   0.532160 0.853553 0.145884 0.543251
C109  C     C_3   0.689783 0.123355 0.467160 -0.221443
C110  C     C_3   0.310217 0.123355 0.532840 -0.221443
C111  C     C_3   0.189783 0.623355 0.467160 -0.221443
C112  C     C_3   0.810217 0.623355 0.532840 -0.221443
C113  C     C_3   0.693275 0.137764 0.547666 -0.252434
C114  C     C_3   0.306725 0.137764 0.452333 -0.252434
C115  C     C_3   0.193275 0.637764 0.547666 -0.252434
C116  C     C_3   0.806725 0.637764 0.452333 -0.252434
C117  C     C_3   0.750158 0.922642 0.491955 -0.283837
C118  C     C_3   0.249842 0.922642 0.508045 -0.283836
C119  C     C_3   0.250158 0.422642 0.491955 -0.283837
C120  C     C_3   0.749842 0.422642 0.508045 -0.283836
Cr1   Cr    Cr6+3 0.885690 0.492860 0.745310 1.007979
Cr2   Cr    Cr6+3 0.114310 0.492860 0.254690 1.007979
Cr3   Cr    Cr6+3 0.385690 0.992860 0.745310 1.007979
Cr4   Cr    Cr6+3 0.614310 0.992860 0.254690 1.007979
Cr5   Cr    Cr6+3 0.729880 0.332270 0.748190 1.009196
Cr6   Cr    Cr6+3 0.270120 0.332270 0.251810 1.009196
Cr7   Cr    Cr6+3 0.229880 0.832270 0.748190 1.009196
Cr8   Cr    Cr6+3 0.770120 0.832270 0.251810 1.009196
Cr9   Cr    Cr6+3 0.888120 0.178590 0.753010 1.006543
Cr10  Cr    Cr6+3 0.111880 0.178590 0.246990 1.006543
Cr11  Cr    Cr6+3 0.388120 0.678590 0.753010 1.006542
Cr12  Cr    Cr6+3 0.611880 0.678590 0.246990 1.006543
H1    H     H_    0.638250 0.103500 0.450344 0.109683
H2    H     H_    0.361749 0.103500 0.549656 0.109683
H3    H     H_    0.138250 0.603500 0.450344 0.109683
H4    H     H_    0.861749 0.603500 0.549656 0.109683
H5    H     H_    0.866409 0.062782 0.545041 0.097070
H6    H     H_    0.133591 0.062782 0.454959 0.097070
H7    H     H_    0.366409 0.562782 0.545041 0.097070
H8    H     H_    0.633591 0.562782 0.454959 0.097070
H9    H     H_    0.800068 0.883196 0.481320 0.096598
H10   H     H_    0.199932 0.883196 0.518680 0.096598
H11   H     H_    0.300068 0.383196 0.481320 0.096598
H12   H     H_    0.699932 0.383196 0.518680 0.096598
H13   H     H_    0.796588 0.908802 0.597545 0.155686
H14   H     H_    0.203412 0.908801 0.402455 0.155687
H15   H     H_    0.296588 0.408801 0.597545 0.155687
H16   H     H_    0.703412 0.408801 0.402455 0.155687
H17   H     H_    0.042864 0.152438 0.440458 0.127814
H18   H     H_    0.957136 0.152439 0.559542 0.127814
H19   H     H_    0.542864 0.652439 0.440458 0.127814
H20   H     H_    0.457136 0.652439 0.559542 0.127814
H21   H     H_    0.954649 0.170244 0.437074 0.166824
H22   H     H_    0.045351 0.170244 0.562926 0.166824
H23   H     H_    0.454649 0.670244 0.437074 0.166824
H24   H     H_    0.545350 0.670244 0.562926 0.166824
H25   H     H_    0.616062 0.883170 0.454984 0.103454
H26   H     H_    0.383938 0.883170 0.545016 0.103454
H27   H     H_    0.116062 0.383170 0.454984 0.103454
H28   H     H_    0.883938 0.383170 0.545016 0.103454
H29   H     H_    0.599089 0.859271 0.579552 0.195631
H30   H     H_    0.400911 0.859270 0.420448 0.195631
H31   H     H_    0.099089 0.359270 0.579551 0.195631
H32   H     H_    0.900911 0.359270 0.420448 0.195631
H33   H     H_    0.946099 0.491255 0.423371 0.116365
H34   H     H_    0.053901 0.491255 0.576629 0.116364
H35   H     H_    0.446099 0.991255 0.423371 0.116365
H36   H     H_    0.553900 0.991255 0.576629 0.116364
H37   H     H_    0.942918 0.499224 0.540945 0.134880
H38   H     H_    0.057082 0.499224 0.459055 0.134880
H39   H     H_    0.442918 0.999224 0.540945 0.134880
H40   H     H_    0.557081 0.999224 0.459055 0.134880
H41   H     H_    0.834723 0.938072 0.064515 0.138411
H42   H     H_    0.165277 0.938072 0.935485 0.138411
H43   H     H_    0.334723 0.438072 0.064515 0.138411
H44   H     H_    0.665277 0.438072 0.935485 0.138411
H45   H     H_    0.699002 0.209604 0.441903 0.180862
H46   H     H_    0.300997 0.209604 0.558097 0.180862
H47   H     H_    0.199003 0.709604 0.441903 0.180862
H48   H     H_    0.800997 0.709604 0.558097 0.180862
H49   H     H_    0.860326 0.085746 0.065325 0.119724
H50   H     H_    0.139674 0.085746 0.934675 0.119724
H51   H     H_    0.360326 0.585746 0.065325 0.119724
H52   H     H_    0.639674 0.585746 0.934675 0.119724
H53   H     H_    0.870681 0.044000 0.947243 0.135635
H54   H     H_    0.129319 0.044000 0.052756 0.135635
H55   H     H_    0.370681 0.544000 0.947243 0.135635
H56   H     H_    0.629319 0.544000 0.052756 0.135635
H57   H     H_    0.809841 0.931933 0.947140 0.119190
H58   H     H_    0.190159 0.931933 0.052860 0.119190
H59   H     H_    0.309841 0.431933 0.947140 0.119190
H60   H     H_    0.690158 0.431933 0.052860 0.119190
H61   H     H_    0.700503 0.924611 0.040438 0.106617
H62   H     H_    0.299497 0.924611 0.959562 0.106617
H63   H     H_    0.200503 0.424611 0.040438 0.106617
H64   H     H_    0.799497 0.424611 0.959562 0.106617
H65   H     H_    0.689298 0.960143 0.919279 0.106555
H66   H     H_    0.310702 0.960143 0.080721 0.106555
H67   H     H_    0.189298 0.460143 0.919279 0.106555
H68   H     H_    0.810702 0.460143 0.080721 0.106555
H69   H     H_    0.693352 0.234953 0.076004 0.122864
H70   H     H_    0.306648 0.234953 0.923996 0.122864
H71   H     H_    0.193352 0.734953 0.076004 0.122864
H72   H     H_    0.806648 0.734953 0.923996 0.122864
H73   H     H_    0.782965 0.250648 0.093432 0.111343
H74   H     H_    0.217035 0.250648 0.906568 0.111343
H75   H     H_    0.282965 0.750648 0.093432 0.111343
H76   H     H_    0.717035 0.750649 0.906568 0.111343
H77   H     H_    0.808274 0.251865 0.975456 0.108799
H78   H     H_    0.191726 0.251865 0.024543 0.108799
H79   H     H_    0.308274 0.751865 0.975456 0.108799
H80   H     H_    0.691726 0.751865 0.024543 0.108799
H81   H     H_    0.720007 0.279725 0.957606 0.124834
H82   H     H_    0.279993 0.279726 0.042393 0.124834
H83   H     H_    0.220007 0.779726 0.957606 0.124834
H84   H     H_    0.779993 0.779726 0.042393 0.124834
H85   H     H_    0.641590 0.042012 0.054086 0.130141
H86   H     H_    0.358410 0.042012 0.945914 0.130141
H87   H     H_    0.141590 0.542012 0.054086 0.130141
H88   H     H_    0.858410 0.542012 0.945914 0.130141
H89   H     H_    0.684581 0.228012 0.564176 0.135979
H90   H     H_    0.315419 0.228012 0.435824 0.135979
H91   H     H_    0.184581 0.728011 0.564176 0.135979
H92   H     H_    0.815419 0.728012 0.435824 0.135979
H93   H     H_    0.650950 0.101194 0.935692 0.119874
H94   H     H_    0.349050 0.101194 0.064308 0.119874
H95   H     H_    0.150950 0.601194 0.935692 0.119874
H96   H     H_    0.849050 0.601194 0.064308 0.119874
H97   H     H_    0.034956 0.545973 0.060126 0.133794
H98   H     H_    0.965044 0.545973 0.939874 0.133794
H99   H     H_    0.534956 0.045973 0.060126 0.133794
H100  H     H_    0.465044 0.045973 0.939874 0.133794
H101  H     H_    0.948247 0.510455 0.059198 0.118521
H102  H     H_    0.051753 0.510455 0.940802 0.118520
H103  H     H_    0.448247 0.010455 0.059198 0.118521
H104  H     H_    0.551753 0.010455 0.940802 0.118520
H105  H     H_    0.608579 0.853380 0.030356 0.108538
H106  H     H_    0.391421 0.853380 0.969644 0.108538
H107  H     H_    0.108579 0.353380 0.030356 0.108538
H108  H     H_    0.891421 0.353380 0.969644 0.108538
H109  H     H_    0.596359 0.812989 0.912204 0.107990
H110  H     H_    0.403641 0.812989 0.087796 0.107990
H111  H     H_    0.096359 0.312989 0.912204 0.107990
H112  H     H_    0.903641 0.312989 0.087796 0.107990
H113  H     H_    0.956727 0.187675 0.069038 0.124552
H114  H     H_    0.043273 0.187675 0.930962 0.124552
H115  H     H_    0.456727 0.687675 0.069038 0.124552
H116  H     H_    0.543273 0.687675 0.930962 0.124552
H117  H     H_    0.919107 0.207057 0.952128 0.133423
H118  H     H_    0.080893 0.207057 0.047872 0.133423
H119  H     H_    0.419107 0.707057 0.952128 0.133423
H120  H     H_    0.580893 0.707057 0.047872 0.133423
H121  H     H_    0.649735 0.091606 0.572618 0.113823
H122  H     H_    0.350265 0.091606 0.427382 0.113823
H123  H     H_    0.149735 0.591606 0.572618 0.113823
H124  H     H_    0.850265 0.591606 0.427382 0.113823
H125  H     H_    0.713799 0.854200 0.482991 0.131376
H126  H     H_    0.286201 0.854200 0.517009 0.131375
H127  H     H_    0.213799 0.354200 0.482991 0.131376
H128  H     H_    0.786201 0.354200 0.517009 0.131375
H129  H     H_    0.706473 0.928251 0.599820 0.185137
H130  H     H_    0.293527 0.928251 0.400180 0.185137
H131  H     H_    0.206473 0.428251 0.599820 0.185137
H132  H     H_    0.793527 0.428251 0.400180 0.185137
H133  H     H_    0.855120 0.030069 0.431682 0.150088
H134  H     H_    0.144880 0.030068 0.568318 0.150088
H135  H     H_    0.355120 0.530068 0.431682 0.150088
H136  H     H_    0.644880 0.530069 0.568318 0.150088
H137  H     H_    0.843235 0.209372 0.535852 0.123233
H138  H     H_    0.156765 0.209371 0.464148 0.123233
H139  H     H_    0.343235 0.709371 0.535852 0.123234
H140  H     H_    0.656765 0.709372 0.464148 0.123234
O1    O     O_R   0.957210 0.449410 0.665480 -0.540561
O2    O     O_R   0.042790 0.449410 0.334520 -0.540561
O3    O     O_R   0.457210 0.949410 0.665480 -0.540561
O4    O     O_R   0.542790 0.949410 0.334520 -0.540561
O5    O     O_R   0.736260 0.212010 0.826560 -0.511443
O6    O     O_R   0.263740 0.212010 0.173440 -0.511443
O7    O     O_R   0.236260 0.712010 0.826560 -0.511443
O8    O     O_R   0.763740 0.712010 0.173440 -0.511443
O9    O     O_R   0.832520 0.095300 0.836000 -0.530353
O10   O     O_R   0.167480 0.095300 0.164000 -0.530353
O11   O     O_R   0.332520 0.595300 0.836000 -0.530353
O12   O     O_R   0.667480 0.595300 0.164000 -0.530353
O13   O     O_R   0.946380 0.253940 0.826940 -0.508801
O14   O     O_R   0.053620 0.253940 0.173060 -0.508801
O15   O     O_R   0.446380 0.753940 0.826940 -0.508801
O16   O     O_R   0.553620 0.753940 0.173060 -0.508801
O17   O     O_3   0.834560 0.334570 0.748840 -0.300013
O18   O     O_3   0.165440 0.334570 0.251160 -0.300013
O19   O     O_3   0.334560 0.834570 0.748840 -0.300013
O20   O     O_3   0.665440 0.834570 0.251160 -0.300013
O21   O     O_R   0.820730 0.541240 0.668250 -0.488963
O22   O     O_R   0.179270 0.541240 0.331750 -0.488963
O23   O     O_R   0.320730 0.041240 0.668250 -0.488963
O24   O     O_R   0.679270 0.041240 0.331750 -0.488963
O25   O     O_R   0.714240 0.455060 0.663710 -0.495682
O26   O     O_R   0.285760 0.455060 0.336290 -0.495681
O27   O     O_R   0.214240 0.955060 0.663710 -0.495682
O28   O     O_R   0.785760 0.955060 0.336290 -0.495681
O29   O     O_R   0.736780 0.204870 0.675910 -0.525518
O30   O     O_R   0.263220 0.204870 0.324090 -0.525518
O31   O     O_R   0.236780 0.704870 0.675910 -0.525518
O32   O     O_R   0.763220 0.704870 0.324090 -0.525518
O33   O     O_R   0.833070 0.087590 0.673490 -0.526984
O34   O     O_R   0.166930 0.087590 0.326510 -0.526985
O35   O     O_R   0.333070 0.587590 0.673490 -0.526984
O36   O     O_R   0.666930 0.587590 0.326510 -0.526985
O37   O     O_R   0.946890 0.246800 0.676300 -0.503609
O38   O     O_R   0.053110 0.246800 0.323700 -0.503609
O39   O     O_R   0.446890 0.746800 0.676300 -0.503609
O40   O     O_R   0.553110 0.746800 0.323700 -0.503609
O41   O     O_R   0.956650 0.457120 0.827980 -0.531669
O42   O     O_R   0.043350 0.457120 0.172020 -0.531668
O43   O     O_R   0.456650 0.957120 0.827980 -0.531669
O44   O     O_R   0.543350 0.957120 0.172020 -0.531668
O45   O     O_R   0.820220 0.548390 0.818890 -0.503296
O46   O     O_R   0.179780 0.548390 0.181110 -0.503296
O47   O     O_R   0.320220 0.048390 0.818890 -0.503296
O48   O     O_R   0.679780 0.048390 0.181110 -0.503296
O49   O     O_R   0.713680 0.462770 0.826210 -0.520778
O50   O     O_R   0.286320 0.462770 0.173790 -0.520778
O51   O     O_R   0.213680 0.962770 0.826210 -0.520778
O52   O     O_R   0.786320 0.962770 0.173790 -0.520778
Cl1   Cl    Cl    0.821231 0.206235 0.384150 -0.732912
Cl2   Cl    Cl    0.178769 0.206235 0.615850 -0.732913
Cl3   Cl    Cl    0.321231 0.706235 0.384150 -0.732913
Cl4   Cl    Cl    0.678769 0.706236 0.615850 -0.732913

loop_
_geom_bond_atom_site_label_1
_geom_bond_atom_site_label_2
_ccdc_geom_bond_type
C83   H105  S    
C5    H133  S    
C82   C94   S    
C119  H11   S    
C82   H117  S    
C119  H127  S    
C120  H12   S    
C45   O33   A    
C53   C69   S    
C104  O8    A    
C43   C63   S    
C44   C64   S    
Cr6   O6    S    
C80   H100  S    
C18   H130  S    
C63   C98   S    
Cr2   O2    S    
C31   H40   S    
C28   C40   S    
C36   H36   S    
C30   C38   S    
Cr9   O33   S    
C56   C72   S    
C21   H5    S    
C92   O4    A    
C18   C118  S    
C81   C86   S    
C83   C88   S    
C48   O32   A    
C74   H82   S    
C111  H47   S    
C41   C49   S    
C111  H3    S    
Cr8   O28   S    
Cr1   O45   S    
C114  H122  S    
Cr2   O42   S    
C109  H1    S    
Cr4   O48   S    
C88   H109  S    
C26   C38   S    
Cr10  O34   S    
C120  H128  S    
Cr11  O39   S    
C60   C76   S    
C24   H8    S    
Cr8   O52   S    
C30   H37   S    
C54   C70   S    
C48   O36   A    
C68   C72   S    
C23   H139  S    
C97   O45   A    
C13   C21   S    
C87   H115  S    
C79   H99   S    
C31   H25   S    
C64   C97   S    
C36   H29   S    
C15   C115  S    
C20   C120  S    
C116  H124  S    
C101  O5    A    
C5    Cl1   S    
C59   C63   S    
C70   H94   S    
Cr4   O20   S    
C57   C61   S    
C118  H126  S    
C82   C85   S    
Cr6   O50   S    
C77   H97   S    
Cr11  O19   S    
C60   C64   S    
Cr9   O13   S    
C20   H132  S    
C13   C45   S    
C102  O6    A    
C78   C94   S    
C43   H51   S    
C95   C108  S    
C113  H89   S    
C62   C99   S    
C107  O43   A    
C5    C21   S    
C58   H70   S    
C110  H46   S    
C31   C36   S    
C47   O35   A    
C4    O28   A    
C55   C71   S    
C90   O38   A    
C54   H62   S    
Cr1   O21   S    
C80   H104  S    
Cr2   O18   S    
C65   C101  S    
Cr10  O14   S    
Cr3   O23   S    
Cr11  O11   S    
C67   C103  S    
C66   C70   S    
C37   C90   S    
C24   H140  S    
C73   H77   S    
Cr5   O17   S    
C66   C74   S    
C117  H125  S    
C25   H17   S    
C57   C73   S    
C6    Cl2   S    
C53   C61   S    
C60   H72   S    
C56   H88   S    
C55   C63   S    
C6    H134  S    
C56   C64   S    
Cr7   O51   S    
C42   C62   S    
C8    C12   S    
C112  H48   S    
Cr5   O29   S    
C44   C52   S    
C70   H66   S    
Cr6   O18   S    
C84   H119  S    
C85   H113  S    
C1    C12   S    
C43   H43   S    
C112  H4    S    
C2    C11   S    
C77   H101  S    
Cr3   O3    S    
C7    C11   S    
C53   H85   S    
C42   H42   S    
Cr9   O37   S    
C55   H87   S    
C25   C26   S    
C85   H112  S    
C105  O13   A    
C107  O15   A    
C5    C9    S    
C108  O16   A    
C59   H71   S    
C93   C106  S    
C88   H116  S    
C78   H102  S    
C90   O2    A    
C51   C67   S    
C7    H135  S    
C42   C50   S    
Cr2   O46   S    
C7    Cl3   S    
C110  H2    S    
C61   C100  S    
C67   C75   S    
C91   O3    A    
C50   H54   S    
C112  C116  S    
C51   H59   S    
C58   C74   S    
Cr10  O38   S    
C59   H75   S    
Cr11  O35   S    
C33   H33   S    
C44   H44   S    
C68   C76   S    
C13   C17   S    
C98   O46   A    
C14   C22   S    
C79   H103  S    
Cr3   O43   S    
C7    C23   S    
C8    C24   S    
C40   C91   S    
C101  O9    A    
Cr7   O27   S    
C99   O51   A    
Cr8   O20   S    
C49   H53   S    
C57   H69   S    
C52   H56   S    
Cr7   O7    S    
C4    C9    S    
Cr4   O24   S    
Cr8   O8    S    
C58   C62   S    
C89   O1    A    
C88   C96   S    
C94   C105  S    
C59   C75   S    
C83   H120  S    
C53   H61   S    
C12   C112  S    
C81   H118  S    
C41   H49   S    
C21   H137  S    
C14   C46   S    
C77   C78   S    
C42   H50   S    
C15   C19   S    
C115  H91   S    
C75   H79   S    
C1    O25   A    
C58   H74   S    
C6    C22   S    
C2    O22   A    
C41   H41   S    
C56   H64   S    
C86   H111  S    
C54   H86   S    
Cr2   O22   S    
C15   C47   S    
Cr3   O19   S    
C46   O34   A    
C17   C117  S    
C19   C119  S    
C27   H23   S    
C73   H81   S    
Cr12  O36   S    
C16   C116  S    
C9    C109  S    
C113  H121  S    
C25   H21   S    
C26   H18   S    
C105  O41   A    
C60   H76   S    
C87   H110  S    
C54   C62   S    
C18   H14   S    
Cr3   O47   S    
C29   C34   S    
C108  O44   A    
C33   C37   S    
C41   C61   S    
C81   H107  S    
C116  H92   S    
C117  H9    S    
C79   C95   S    
Cr5   O25   S    
C76   H84   S    
Cr6   O30   S    
C114  H90   S    
Cr12  O12   S    
C32   H39   S    
C91   O39   A    
C100  O52   A    
C39   C92   S    
C27   H19   S    
C106  O14   A    
C14   C18   S    
C84   H106  S    
C68   C104  S    
C69   H93   S    
C17   H13   S    
C6    C10   S    
C71   H67   S    
C1    O21   A    
C78   H98   S    
C22   H6    S    
Cr5   O49   S    
C19   H15   S    
C14   C114  S    
C104  O12   A    
C43   C51   S    
Cr5   O5    S    
C65   C69   S    
C77   C93   S    
C10   C110  S    
C67   C71   S    
C17   H129  S    
C50   H58   S    
Cr1   O1    S    
C51   H55   S    
C3    O27   A    
C19   H131  S    
C109  H45   S    
C72   H96   S    
C29   C37   S    
C11   C111  S    
C34   H34   S    
C55   H63   S    
C9    C117  S    
C102  O10   A    
C35   C39   S    
C84   C87   S    
C103  O7    A    
C8    H136  S    
C11   C119  S    
C16   C48   S    
C29   H27   S    
C30   H28   S    
C38   C89   S    
C49   C65   S    
C74   H78   S    
C23   H7    S    
Cr7   O31   S    
Cr8   O32   S    
C49   H57   S    
Cr1   O41   S    
C57   H73   S    
C65   C73   S    
C52   H60   S    
Cr4   O44   S    
C86   C94   S    
C25   C37   S    
C12   C120  S    
C27   C39   S    
C82   H108  S    
C35   H35   S    
Cr12  O20   S    
C29   H38   S    
C80   C96   S    
C44   H52   S    
C52   C68   S    
C16   C20   S    
C22   H138  S    
C15   C23   S    
Cr9   O17   S    
C86   H114  S    
C69   H65   S    
C85   C93   S    
C2    O26   A    
C103  O11   A    
C32   H26   S    
C35   H30   S    
C32   C35   S    
C36   C40   S    
C33   H32   S    
C34   H31   S    
C97   O49   A    
C66   C102  S    
Cr7   O19   S    
C87   C95   S    
C99   O47   A    
C46   O30   A    
C10   C118  S    
C72   H68   S    
C81   C93   S    
C83   C95   S    
Cr10  O18   S    
C20   H16   S    
Cr12  O40   S    
Cr9   O9    S    
C50   C66   S    
C100  O48   A    
C28   H20   S    
C45   O29   A    
C26   H22   S    
C84   C96   S    
C106  O42   A    
C92   O40   A    
C110  C114  S    
C30   C33   S    
C34   C38   S    
C71   H95   S    
C96   C107  S    
C47   O31   A    
C4    O24   A    
C118  H10   S    
C89   O37   A    
Cr6   O26   S    
C109  C113  S    
Cr1   O17   S    
Cr10  O10   S    
C3    C10   S    
Cr11  O15   S    
Cr4   O4    S    
C76   H80   S    
Cr12  O16   S    
C75   H83   S    
C31   C39   S    
C32   C40   S    
C8    Cl4   S    
C79   C80   S    
C115  H123  S    
C98   O50   A    
C16   C24   S    
C27   C28   S    
C28   H24   S    
C111  C115  S    
C13   C113  S    
C3    O23   A    
