data_str_m3_o10_o17_f0_pcu.sym.223
_audit_creation_date              2012-12-10T16:52:07-0500
_audit_creation_method            fapswitch 2.2
_symmetry_space_group_name_H-M    P1
_symmetry_Int_Tables_number       1
_space_group_crystal_system       triclinic
_cell_length_a                    7.772785
_cell_length_b                    8.556995
_cell_length_c                    14.864432
_cell_angle_alpha                 90.922219
_cell_angle_beta                  86.145249
_cell_angle_gamma                 93.592706
_cell_volume                      984.413026609

loop_
_atom_site_label
_atom_site_type_symbol
_atom_type_description
_atom_site_fract_x
_atom_site_fract_y
_atom_site_fract_z
_atom_type_partial_charge
C1    C     C_R   0.545710 0.794667 0.497646 0.956158
C2    C     C_R   0.454290 0.205333 0.502354 0.956158
C3    C     C_R   0.626632 0.767559 0.949428 -0.152658
C4    C     C_R   0.373345 0.232449 0.050573 -0.152638
C5    C     C_2   0.569814 0.958169 0.496271 -0.382790
C6    C     C_2   0.430186 0.041831 0.503729 -0.382789
C7    C     C_R   0.502560 0.499439 0.672708 0.874103
C8    C     C_R   0.497439 0.500560 0.327292 0.874102
C9    C     C_R   0.425892 0.371345 0.188353 -0.237530
C10   C     C_R   0.574098 0.628659 0.811647 -0.237531
C11   C     C_R   0.491731 0.503429 0.232337 -0.017297
C12   C     C_R   0.508267 0.496571 0.767663 -0.017296
C13   C     C_R   0.557215 0.636581 0.186493 -0.249904
C14   C     C_R   0.442781 0.363421 0.813507 -0.249899
C15   C     C_R   0.557043 0.640606 0.092761 0.032924
C16   C     C_R   0.442944 0.359400 0.907239 0.032928
C17   C     C_R   0.496765 0.502497 0.046921 0.069734
C18   C     C_R   0.503220 0.497509 0.953079 0.069735
C19   C     C_R   0.430457 0.368682 0.095258 0.096006
C20   C     C_R   0.569527 0.631324 0.904742 0.095997
C21   C     C_R   0.619018 0.775652 0.043486 -0.004932
C22   C     C_R   0.380961 0.224357 0.956514 -0.004914
H1    H     H_    0.376651 0.269353 0.226779 0.124983
H2    H     H_    0.623338 0.730651 0.773221 0.124985
H3    H     H_    0.609861 0.733844 0.225363 0.117868
H4    H     H_    0.390142 0.266155 0.774637 0.117867
H5    H     H_    0.673419 0.869478 0.910420 0.177901
H6    H     H_    0.326555 0.130530 0.089580 0.177886
H7    H     H_    0.701723 0.009132 0.489131 0.183153
H8    H     H_    0.298277 0.990868 0.510869 0.183153
H9    H     H_    0.013605 0.382693 0.432091 0.195232
H10   H     H_    0.986395 0.617307 0.567909 0.195232
N1    N     N_2   0.950330 0.457950 0.475660 -0.171272
N2    N     N_2   0.049670 0.542050 0.524340 -0.171271
O1    O     O_R   0.389250 0.738570 0.505970 -0.612313
O2    O     O_R   0.610750 0.261430 0.494030 -0.612313
O3    O     O_R   0.678390 0.711620 0.490370 -0.632266
O4    O     O_R   0.321610 0.288380 0.509630 -0.632266
O5    O     O_R   0.355420 0.513510 0.639950 -0.609071
O6    O     O_R   0.644580 0.486490 0.360050 -0.609072
O7    O     O_R   0.644560 0.486560 0.624350 -0.623816
O8    O     O_R   0.355440 0.513440 0.375650 -0.623817
Zn1   Zn    Zn3+2 0.306940 0.517990 0.510420 0.952581
Zn2   Zn    Zn3+2 0.693060 0.482010 0.489580 0.952581
C23   C     C_2   0.670814 0.927642 0.087374 0.417736
H11   H     H_    0.630042 0.953266 0.156813 0.044852
O9    O     O_2   0.757978 0.029133 0.045210 -0.549405
C24   C     C_2   0.329152 0.072372 0.912626 0.417749
H12   H     H_    0.369954 0.046731 0.843199 0.044867
O10   O     O_2   0.241940 0.970908 0.954776 -0.549412

loop_
_geom_bond_atom_site_label_1
_geom_bond_atom_site_label_2
_ccdc_geom_bond_type
C22   C24   S    
H9    N1    S    
C11   C13   A    
C2    O4    A    
O6    Zn2   S    
C18   C20   A    
C1    O3    A    
C8    O8    A    
C16   C22   A    
O1    Zn1   S    
O3    Zn2   S    
C3    H5    S    
C17   C18   A    
O4    Zn1   S    
C23   H11   S    
C14   H4    S    
C9    C11   A    
C13   H3    S    
C2    C6    S    
C15   C21   A    
C10   C12   A    
C8    C11   S    
C1    C5    S    
C24   O10   D    
C24   H12   S    
C17   C19   A    
C12   C14   A    
N1    N2    D    
C5    H7    S    
C13   C15   A    
C5    C6    D    
C6    H8    S    
O7    Zn2   S    
C14   C16   A    
C7    C12   S    
C3    C21   A    
O2    Zn2   S    
O8    Zn1   S    
N1    Zn2   S    
C3    C20   A    
C4    C22   A    
C1    O1    A    
C16   C18   A    
C23   O9    D    
C2    O2    A    
C15   C17   A    
C7    O5    A    
C9    H1    S    
C10   H2    S    
O5    Zn1   S    
C8    O6    A    
C4    H6    S    
C4    C19   A    
C9    C19   A    
N2    Zn1   S    
C7    O7    A    
C10   C20   A    
C21   C23   S    
H10   N2    S    
