data_str_m2_o18_o24_f0_pcu.sym.176
_audit_creation_date              2012-12-10T17:50:13-0500
_audit_creation_method            fapswitch 2.2
_symmetry_space_group_name_H-M    P1
_symmetry_Int_Tables_number       1
_space_group_crystal_system       triclinic
_cell_length_a                    10.595271
_cell_length_b                    14.718281
_cell_length_c                    14.627563
_cell_angle_alpha                 65.189865
_cell_angle_beta                  103.742895
_cell_angle_gamma                 102.633866
_cell_volume                      1992.85732088

loop_
_atom_site_label
_atom_site_type_symbol
_atom_type_description
_atom_site_fract_x
_atom_site_fract_y
_atom_site_fract_z
_atom_type_partial_charge
C1    C     C_R   0.481465 0.119295 0.312003 0.807799
C2    C     C_R   0.522393 0.880414 0.688435 0.823537
C3    C     C_R   0.484370 0.288981 0.175974 -0.322872
C4    C     C_R   0.530829 0.709153 0.823103 -0.330224
C5    C     C_R   0.509136 0.359874 0.079518 0.090562
C6    C     C_R   0.539424 0.639160 0.924819 0.091456
C7    C     C_R   0.518062 0.323339 0.006177 0.091674
C8    C     C_R   0.548731 0.675790 0.001856 0.099489
C9    C     C_R   0.524820 0.465728 0.054169 0.081532
C10   C     C_R   0.534200 0.533618 0.951653 0.080796
C11   C     C_R   0.540995 0.493853 0.880207 -0.220171
C12   C     C_R   0.536583 0.505858 0.128895 -0.222353
C13   C     C_R   0.534245 0.390733 0.907551 -0.196244
C14   C     C_R   0.549329 0.608966 0.103004 -0.198388
C15   C     C_R   0.736929 0.292061 0.657020 0.316256
C16   C     C_R   0.268126 0.710566 0.339034 0.327746
C17   C     C_R   0.694282 0.207321 0.630974 -0.035883
C18   C     C_R   0.309902 0.794883 0.364957 -0.003596
C19   C     C_R   0.514611 0.283351 0.512484 -0.015646
C20   C     C_R   0.483595 0.715640 0.489247 -0.039260
C21   C     C_R   0.550256 0.371482 0.535047 -0.088481
C22   C     C_R   0.449461 0.628241 0.465299 -0.080311
C23   C     C_R   0.259457 0.000716 0.499598 0.784253
C24   C     C_R   0.740370 0.999664 0.499708 0.761734
C25   C     C_R   0.662040 0.373169 0.610636 0.070584
C26   C     C_R   0.339783 0.627659 0.387814 0.051178
C27   C     C_R   0.479487 0.457286 0.485667 0.109465
C28   C     C_R   0.519938 0.542327 0.514838 0.116806
C29   C     C_R   0.629727 0.538731 0.592296 -0.275342
C30   C     C_R   0.370417 0.461324 0.407478 -0.264509
C31   C     C_R   0.699161 0.456585 0.638332 -0.169171
C32   C     C_R   0.302378 0.544302 0.360144 -0.167648
C33   C     C_3   0.014640 0.010146 0.406647 -0.184548
C34   C     C_3   0.984818 0.990595 0.591670 -0.166660
C35   C     C_3   0.960204 0.087307 0.428042 -0.179295
C36   C     C_3   0.039155 0.913425 0.570266 -0.158231
C37   C     C_3   0.876825 0.999227 0.499028 0.029253
C38   C     C_3   0.122674 0.001513 0.499365 0.030698
C39   C     C_3   0.928799 0.922019 0.477569 -0.147055
C40   C     C_3   0.070589 0.078746 0.520732 -0.131953
C41   C     C_R   0.485485 0.185905 0.204358 -0.158009
C42   C     C_R   0.536975 0.812886 0.797686 -0.156484
C43   C     C_R   0.513381 0.219557 0.032811 -0.283602
C44   C     C_R   0.556358 0.779251 0.977200 -0.281114
C45   C     C_R   0.503617 0.150972 0.132770 0.438976
C46   C     C_R   0.555056 0.848748 0.876105 0.446414
Cu1   Cu    Cu3+1 0.465750 0.918270 0.475680 0.938112
Cu2   Cu    Cu3+1 0.534250 0.081730 0.524320 0.944604
H1    H     H_    0.924249 0.158170 0.369794 0.125055
H2    H     H_    0.074855 0.842445 0.628458 0.132746
H3    H     H_    0.565081 0.722853 0.546824 0.139091
H4    H     H_    0.430522 0.274800 0.457300 0.133426
H5    H     H_    0.258506 0.860327 0.325904 0.147301
H6    H     H_    0.746662 0.142606 0.667061 0.123737
H7    H     H_    0.665905 0.598916 0.619170 0.130464
H8    H     H_    0.334834 0.401413 0.380142 0.131223
H9    H     H_    0.030053 0.018196 0.330993 0.125022
H10   H     H_    0.969097 0.982537 0.667251 0.121063
H11   H     H_    0.867872 0.857941 0.459826 0.134995
H12   H     H_    0.131328 0.142946 0.538348 0.135750
H13   H     H_    0.542264 0.363616 0.850984 0.155428
H14   H     H_    0.558464 0.636514 0.162719 0.149655
H15   H     H_    0.514578 0.684118 0.761449 0.172519
H16   H     H_    0.463428 0.312105 0.230986 0.165602
H17   H     H_    0.521938 0.191959 0.976933 0.154458
H18   H     H_    0.561859 0.806539 0.036510 0.148294
H19   H     H_    0.556927 0.540563 0.803180 0.140894
H20   H     H_    0.540949 0.459758 0.209184 0.145620
H21   H     H_    0.783540 0.459175 0.696418 0.191311
H22   H     H_    0.219206 0.542704 0.300855 0.186528
N1    N     N_R   0.585750 0.204560 0.560800 -0.188727
N2    N     N_R   0.414250 0.795440 0.439200 -0.204494
O1    O     O_R   0.454850 0.022100 0.338110 -0.536508
O2    O     O_R   0.545150 0.977900 0.661890 -0.535436
O3    O     O_R   0.512700 0.160150 0.379180 -0.592936
O4    O     O_R   0.487300 0.839850 0.620820 -0.592474
O5    O     O_R   0.287930 0.931000 0.479440 -0.589466
O6    O     O_R   0.712070 0.069000 0.520560 -0.592028
O7    O     O_R   0.345780 0.069050 0.520520 -0.582434
O8    O     O_R   0.654220 0.930950 0.479480 -0.591089
O9    O     O_3   0.844311 0.294542 0.732675 -0.596971
C47   C     C_3   0.954218 0.265022 0.718458 0.044425
H23   H     H_    0.963737 0.294797 0.636206 0.138096
H24   H     H_    0.947436 0.181273 0.751695 0.137952
C48   C     C_3   0.078072 0.306440 0.774074 -0.758785
H25   H     H_    0.073456 0.276796 0.856838 0.250076
H26   H     H_    0.165201 0.283096 0.764281 0.201736
H27   H     H_    0.088425 0.390254 0.742499 0.244086
O10   O     O_3   0.162882 0.711856 0.261598 -0.579537
C49   C     C_3   0.045559 0.697662 0.298763 0.047347
H28   H     H_    0.039911 0.762360 0.317653 0.133274
H29   H     H_    0.037740 0.626219 0.367855 0.141353
C50   C     C_3   0.928930 0.690695 0.216867 -0.767833
H30   H     H_    0.930370 0.625891 0.197085 0.249787
H31   H     H_    0.836125 0.679518 0.245351 0.194041
H32   H     H_    0.932614 0.761421 0.147234 0.246431
O11   O     O_3   0.555744 0.949943 0.853584 -0.557679
C51   C     C_3   0.681870 0.991572 0.888429 0.070113
H33   H     H_    0.747040 0.010808 0.831742 0.135921
H34   H     H_    0.729146 0.940138 0.963865 0.119811
C52   C     C_3   0.670173 0.086898 0.900393 -0.759185
H35   H     H_    0.611951 0.066513 0.961639 0.242534
H36   H     H_    0.769072 0.124433 0.921308 0.216249
H37   H     H_    0.619870 0.139929 0.828237 0.260318
O12   O     O_3   0.510158 0.050070 0.159087 -0.561280
C53   C     C_3   0.643151 0.034230 0.191666 0.087439
H38   H     H_    0.687635 0.055616 0.258200 0.130418
H39   H     H_    0.701093 0.078731 0.128707 0.123875
C54   C     C_3   0.652173 0.922857 0.224386 -0.757704
H40   H     H_    0.610628 0.899285 0.159260 0.237426
H41   H     H_    0.756388 0.909670 0.250153 0.181775
H42   H     H_    0.596918 0.876547 0.288344 0.264030

loop_
_geom_bond_atom_site_label_1
_geom_bond_atom_site_label_2
_ccdc_geom_bond_type
C25   C31   A    
C38   C40   S    
C26   C32   A    
C50   H30   S    
C40   H12   S    
C34   C37   S    
C44   H18   S    
O11   C51   S    
C2    O4    A    
C15   O9    S    
C3    H16   S    
C12   H20   S    
C4    H15   S    
C52   H35   S    
C4    C42   A    
C34   C40   S    
Cu2   O7    S    
C28   C29   A    
C35   C37   S    
Cu1   O4    S    
C20   H3    S    
C54   H41   S    
C51   H33   S    
C15   C25   A    
C53   H38   S    
C14   H14   S    
C42   C46   A    
Cu2   O6    S    
C18   H5    S    
C19   N1    A    
C19   H4    S    
C24   O8    A    
C44   C46   A    
C35   H1    S    
C33   H9    S    
C7    C43   A    
C9    C10   A    
C2    O2    A    
C21   C27   A    
C16   O10   S    
C52   H36   S    
C22   C28   A    
C27   C30   A    
C18   N2    A    
Cu2   O3    S    
Cu1   O8    S    
C45   O12   S    
C11   H19   S    
O9    C47   S    
C48   H26   S    
C16   C26   A    
C1    O3    A    
Cu2   O2    S    
Cu1   O1    S    
C4    C6    A    
C54   H42   S    
C5    C7    A    
C32   H22   S    
C29   H7    S    
C48   H25   S    
C30   H8    S    
C5    C9    A    
C49   H29   S    
Cu1   Cu2   S    
C7    C13   A    
C43   H17   S    
C39   H11   S    
C24   C37   S    
C16   C18   A    
C33   C39   S    
C23   O5    A    
C43   C45   A    
C24   O6    A    
C46   O11   S    
C12   C14   A    
C17   N1    A    
C52   H37   S    
C47   H24   S    
Cu1   O5    S    
Cu2   N1    S    
C23   C38   S    
C36   H2    S    
C49   C50   S    
C48   H27   S    
C1    C41   S    
C15   C17   A    
C21   C25   A    
C3    C41   A    
C8    C14   A    
C19   C21   A    
C36   C39   S    
C8    C44   A    
C20   C22   A    
C3    C5    A    
C6    C10   A    
C6    C8    A    
C50   H32   S    
C47   C48   S    
O12   C53   S    
C51   H34   S    
C33   C38   S    
C51   C52   S    
C1    O1    A    
C36   C38   S    
C35   C40   S    
C37   C39   S    
C54   H40   S    
C30   C32   A    
C11   C13   A    
C49   H28   S    
C50   H31   S    
C53   H39   S    
C2    C42   S    
C33   C35   S    
C34   C36   S    
C9    C12   A    
Cu1   N2    S    
C10   C11   A    
C31   H21   S    
C13   H13   S    
C29   C31   A    
C47   H23   S    
C22   C26   A    
C27   C28   A    
C34   H10   S    
C41   C45   A    
C20   N2    A    
C23   O7    A    
O10   C49   S    
C17   H6    S    
C53   C54   S    
