data_str_m9_o10_o29_f0_sra.sym.36
_audit_creation_date              2012-12-11T14:08:38-0500
_audit_creation_method            fapswitch 2.2
_symmetry_space_group_name_H-M    P1
_symmetry_Int_Tables_number       1
_space_group_crystal_system       triclinic
_cell_length_a                    28.215241
_cell_length_b                    7.193697
_cell_length_c                    17.198563
_cell_angle_alpha                 89.921848
_cell_angle_beta                  101.912145
_cell_angle_gamma                 90.013175
_cell_volume                      3415.64770522

loop_
_atom_site_label
_atom_site_type_symbol
_atom_type_description
_atom_site_fract_x
_atom_site_fract_y
_atom_site_fract_z
_atom_type_partial_charge
O1    O     O_R   0.000700 0.436510 0.857920 -0.533047
O2    O     O_R   0.999300 0.563490 0.142080 -0.533043
O3    O     O_R   0.999300 0.936510 0.642080 -0.533045
O4    O     O_R   0.000700 0.063490 0.357920 -0.533039
O5    O     O_R   0.930080 0.766380 0.721890 -0.542485
O6    O     O_R   0.069920 0.233620 0.278110 -0.542494
O7    O     O_R   0.069920 0.266380 0.778110 -0.542393
O8    O     O_R   0.930080 0.733620 0.221890 -0.542383
C1    C     C_R   0.910566 0.597627 0.708997 0.696245
C2    C     C_R   0.089434 0.402373 0.291004 0.696237
C3    C     C_R   0.089431 0.097593 0.791010 0.696332
C4    C     C_R   0.910570 0.902406 0.208989 0.696355
O9    O     O_R   0.996180 0.766230 0.862310 -0.543020
O10   O     O_R   0.003820 0.233770 0.137690 -0.543025
O11   O     O_R   0.003820 0.266230 0.637690 -0.543306
O12   O     O_R   0.996180 0.733770 0.362310 -0.543318
O13   O     O_R   0.065870 0.936460 0.783500 -0.539551
O14   O     O_R   0.934130 0.063540 0.216500 -0.539550
O15   O     O_R   0.934130 0.436460 0.716500 -0.539426
O16   O     O_R   0.065870 0.563540 0.283500 -0.539416
C5    C     C_R   0.998484 0.596390 0.894470 0.761738
C6    C     C_R   0.001516 0.403610 0.105529 0.761749
C7    C     C_R   0.001514 0.096501 0.605498 0.760364
C8    C     C_R   0.998486 0.903499 0.394502 0.760344
O17   O     O_3   0.022790 0.603020 0.723980 -0.378389
O18   O     O_3   0.977210 0.396980 0.276020 -0.378389
O19   O     O_3   0.977210 0.103020 0.776020 -0.377893
O20   O     O_3   0.022790 0.896980 0.223980 -0.377879
V1    V     V_3+5 0.995770 0.877900 0.754830 1.411599
V2    V     V_3+5 0.004230 0.122100 0.245170 1.411628
V3    V     V_3+5 0.004230 0.377900 0.745170 1.411245
V4    V     V_3+5 0.995770 0.622100 0.254830 1.411290
C9    C     C_2   0.001699 0.082677 0.519536 -0.330454
C10   C     C_2   0.998301 0.917323 0.480464 -0.330462
C11   C     C_2   0.998291 0.582611 0.980391 -0.330104
C12   C     C_2   0.001709 0.417389 0.019609 -0.330106
H1    H     H_    0.004476 0.211536 0.487790 0.153559
H2    H     H_    0.995524 0.788464 0.512210 0.153560
H3    H     H_    0.995492 0.711457 0.011993 0.153821
H4    H     H_    0.004507 0.288543 0.988007 0.153820
C13   C     C_R   0.684196 0.024991 0.033031 0.578429
C14   C     C_R   0.315803 0.976455 0.967212 0.578391
C15   C     C_R   0.318723 0.367811 0.464766 0.580058
C16   C     C_R   0.681387 0.629838 0.534622 0.579990
O21   O     O_2   0.714281 0.088955 0.987422 -0.515496
O22   O     O_2   0.285721 0.913883 0.013097 -0.515383
O23   O     O_2   0.291262 0.283748 0.510074 -0.513551
O24   O     O_2   0.708935 0.711682 0.488871 -0.513301
N1    N     N_R   0.702963 0.944443 0.105087 -0.558503
N2    N     N_R   0.297032 0.055568 0.894859 -0.558644
N3    N     N_R   0.297214 0.442969 0.392855 -0.558435
N4    N     N_R   0.702804 0.557001 0.607037 -0.558612
C17   C     C_R   0.672977 0.876170 0.151709 0.577361
C18   C     C_R   0.327006 0.122373 0.847923 0.577403
C19   C     C_R   0.324455 0.530561 0.346371 0.576411
C20   C     C_R   0.675481 0.471697 0.654002 0.576462
C21   C     C_R   0.778205 0.760006 0.143914 -0.079399
C22   C     C_R   0.221814 0.240005 0.855775 -0.079582
C23   C     C_R   0.222049 0.259544 0.351063 -0.079925
C24   C     C_R   0.777996 0.740544 0.648144 -0.079998
C25   C     C_R   0.828613 0.749532 0.169248 -0.193682
C26   C     C_R   0.171405 0.250478 0.830465 -0.193664
C27   C     C_R   0.171604 0.249436 0.326329 -0.193293
C28   C     C_R   0.828438 0.750657 0.672924 -0.193184
C29   C     C_R   0.833087 0.085795 0.172236 -0.193273
C30   C     C_R   0.166897 0.914181 0.828034 -0.193195
C31   C     C_R   0.166778 0.585222 0.331513 -0.193419
C32   C     C_R   0.833183 0.414695 0.669203 -0.193331
C33   C     C_R   0.782739 0.095837 0.147053 -0.084474
C34   C     C_R   0.217246 0.904140 0.853212 -0.084633
C35   C     C_R   0.217166 0.594896 0.356257 -0.084499
C36   C     C_R   0.782797 0.405011 0.644440 -0.084551
C37   C     C_R   0.754893 0.933224 0.132389 0.375027
C38   C     C_R   0.245105 0.066774 0.867575 0.375385
C39   C     C_R   0.245217 0.432306 0.366360 0.374364
C40   C     C_R   0.754793 0.567686 0.633574 0.374711
C41   C     C_R   0.602231 0.971202 0.052781 -0.043635
C42   C     C_R   0.397760 0.028741 0.947140 -0.043608
C43   C     C_R   0.397897 0.470171 0.445736 -0.044082
C44   C     C_R   0.602129 0.529749 0.554117 -0.044061
C45   C     C_R   0.633689 0.040274 0.005803 -0.033103
C46   C     C_R   0.366310 0.961182 0.994441 -0.033178
C47   C     C_R   0.369282 0.379667 0.492314 -0.032369
C48   C     C_R   0.630832 0.617926 0.507042 -0.032546
C49   C     C_R   0.614202 0.123056 0.932697 -0.126031
C50   C     C_R   0.385805 0.880114 0.067908 -0.125990
C51   C     C_R   0.391577 0.303750 0.565514 -0.125413
C52   C     C_R   0.608638 0.691172 0.433260 -0.125316
C53   C     C_R   0.622241 0.887884 0.126385 -0.029805
C54   C     C_R   0.377741 0.110578 0.873221 -0.030003
C55   C     C_R   0.375091 0.546059 0.371972 -0.030219
C56   C     C_R   0.624846 0.456203 0.628392 -0.030403
C57   C     C_R   0.856823 0.912444 0.183506 -0.052184
C58   C     C_R   0.143178 0.087551 0.816490 -0.052160
C59   C     C_R   0.143200 0.412264 0.316329 -0.052630
C60   C     C_R   0.856801 0.587742 0.683668 -0.052597
H5    H     H_    0.853336 0.214398 0.182695 0.135508
H6    H     H_    0.146636 0.785562 0.817805 0.135440
H7    H     H_    0.146367 0.713751 0.324671 0.135468
H8    H     H_    0.853561 0.286098 0.676652 0.135464
H9    H     H_    0.765309 0.230612 0.138851 0.124667
H10   H     H_    0.234666 0.769358 0.861641 0.124282
H11   H     H_    0.234431 0.729282 0.368164 0.125990
H12   H     H_    0.765496 0.270549 0.633109 0.125418
C61   C     C_R   0.480208 0.083884 0.925020 0.038931
C62   C     C_R   0.519778 0.915337 0.074748 0.038984
C63   C     C_R   0.522581 0.424415 0.575269 0.038524
C64   C     C_R   0.477408 0.576518 0.424792 0.038569
C65   C     C_R   0.468522 0.930593 0.048437 0.037099
C66   C     C_R   0.531472 0.069989 0.951619 0.037116
C67   C     C_R   0.528640 0.590629 0.451787 0.037802
C68   C     C_R   0.471427 0.408238 0.547829 0.037831
C69   C     C_R   0.449057 0.014369 0.973653 0.062411
C70   C     C_R   0.550933 0.985545 0.026261 0.062391
C71   C     C_R   0.550888 0.514918 0.526949 0.062206
C72   C     C_R   0.449139 0.484988 0.472894 0.062233
C73   C     C_R   0.458677 0.165177 0.851015 -0.173229
C74   C     C_R   0.541297 0.831747 0.148268 -0.173543
C75   C     C_R   0.546749 0.353288 0.649863 -0.173216
C76   C     C_R   0.453108 0.651131 0.350950 -0.173704
C77   C     C_R   0.408658 0.177946 0.825891 -0.133751
C78   C     C_R   0.591316 0.818745 0.173342 -0.133865
C79   C     C_R   0.596665 0.368964 0.675610 -0.132800
C80   C     C_R   0.403174 0.635935 0.325314 -0.133006
O25   O     O_2   0.307852 0.198187 0.776544 -0.515756
O26   O     O_2   0.692117 0.799003 0.222815 -0.515962
O27   O     O_2   0.697144 0.403029 0.725582 -0.517853
O28   O     O_2   0.302713 0.601468 0.275259 -0.518087
C81   C     C_R   0.564338 0.137875 0.906108 -0.174599
C82   C     C_R   0.435668 0.865005 0.094435 -0.174596
C83   C     C_R   0.441419 0.317304 0.592738 -0.177198
C84   C     C_R   0.558780 0.678072 0.406123 -0.176878
H13   H     H_    0.394298 0.241366 0.768698 0.160978
H14   H     H_    0.605668 0.753634 0.230176 0.160641
H15   H     H_    0.613122 0.311662 0.733159 0.160264
H16   H     H_    0.386619 0.695837 0.268327 0.160317
H17   H     H_    0.552985 0.204247 0.849241 0.113498
H18   H     H_    0.447034 0.800931 0.151785 0.113466
H19   H     H_    0.455082 0.253778 0.649577 0.114309
H20   H     H_    0.545250 0.738147 0.348529 0.113913
H21   H     H_    0.637533 0.177567 0.895317 0.175983
H22   H     H_    0.362482 0.827295 0.105646 0.175950
H23   H     H_    0.370492 0.232922 0.602534 0.177343
H24   H     H_    0.629820 0.759403 0.395684 0.177651
H25   H     H_    0.154614 0.386411 0.822448 0.133275
H26   H     H_    0.845418 0.613613 0.177047 0.133298
H27   H     H_    0.845126 0.886359 0.683394 0.134238
H28   H     H_    0.154949 0.113803 0.315275 0.134484
H29   H     H_    0.242766 0.366901 0.866896 0.126889
H30   H     H_    0.757272 0.633119 0.132559 0.127301
H31   H     H_    0.756896 0.867444 0.640296 0.128016
H32   H     H_    0.243180 0.132708 0.358303 0.128697
H33   H     H_    0.479306 0.220749 0.810307 0.109718
H34   H     H_    0.520654 0.773845 0.188480 0.110078
H35   H     H_    0.528310 0.284414 0.690598 0.109281
H36   H     H_    0.471416 0.723446 0.310950 0.109822

loop_
_geom_bond_atom_site_label_1
_geom_bond_atom_site_label_2
_ccdc_geom_bond_type
O17   V3    S    
C47   C51   A    
C61   C66   A    
N1    C17   A    
O1    C5    A    
C30   H6    S    
O19   V1    S    
O13   V1    S    
C63   C68   A    
C64   C76   A    
O3    C7    A    
C11   C12   D    
C14   C46   A    
O1    V3    S    
C44   C48   A    
O15   V3    S    
C75   C79   A    
O4    V2    S    
C23   H32   S    
C42   C54   A    
O7    C3    A    
C41   C53   A    
C32   C60   A    
C62   C70   A    
O9    V1    S    
N3    C39   S    
C18   C54   A    
N2    C38   S    
C74   C78   A    
O4    C8    A    
C25   C57   A    
C31   C35   A    
C53   C78   A    
C51   C83   A    
C27   C59   A    
C76   H36   S    
C15   C47   A    
C66   C81   A    
O2    V4    S    
C14   O22   S    
C20   O27   S    
C21   C37   A    
O3    V1    S    
C73   C77   A    
C78   H14   S    
C19   C55   A    
C49   C81   A    
C1    O15   A    
C2    O16   A    
C7    C9    S    
C26   H25   S    
C34   C38   A    
C22   C38   A    
C33   C37   A    
O14   V2    S    
C66   C70   A    
C43   C55   A    
C22   H29   S    
C65   C69   A    
C30   C58   A    
C16   N4    A    
O11   C7    A    
O12   C8    A    
C43   C72   A    
C62   C74   A    
C31   C59   A    
C61   C73   A    
O10   V2    S    
C63   C75   A    
O5    V1    S    
C18   O25   S    
O7    V3    S    
C80   H16   S    
O8    V4    S    
C12   H4    S    
C28   C60   A    
C56   C79   A    
C49   H21   S    
O18   V4    S    
C50   C82   A    
C36   H12   S    
N4    C40   S    
C46   C50   A    
C24   C40   A    
C8    C10   S    
C79   H15   S    
C32   C36   A    
C24   H31   S    
C44   C56   A    
C11   H3    S    
C25   H26   S    
C32   H8    S    
O5    C1    A    
C42   C46   A    
C44   C71   A    
C41   C45   A    
O8    C4    A    
C13   C45   A    
C21   H30   S    
C9    C10   D    
O9    C5    A    
C36   C40   A    
N2    C18   A    
O11   V3    S    
C1    C60   S    
C63   C71   A    
C22   C26   A    
C14   N2    A    
C3    C58   S    
O6    V2    S    
C33   H9    S    
C55   C80   A    
C26   C58   A    
C28   H27   S    
C17   C53   A    
O10   C6    A    
C54   C77   A    
N1    C37   S    
C4    C57   S    
C42   C69   A    
O12   V4    S    
C52   C84   A    
C41   C70   A    
C82   H18   S    
C23   C39   A    
C27   H28   S    
C68   C72   A    
C50   H22   S    
O16   V4    S    
C61   C69   A    
C35   H11   S    
C3    O13   A    
C75   H35   S    
C10   H2    S    
C48   C52   A    
C16   C48   A    
O6    C2    A    
C34   H10   S    
C21   C25   A    
C5    C11   S    
C31   H7    S    
C84   H20   S    
C13   N1    A    
C6    C12   S    
C23   C27   A    
C64   C67   A    
C24   C28   A    
C51   H23   S    
C64   C72   A    
O20   V2    S    
C73   H33   S    
C29   H5    S    
O2    C6    A    
C35   C39   A    
C15   N3    A    
C30   C34   A    
N4    C20   A    
C2    C59   S    
C29   C33   A    
C29   C57   A    
C74   H34   S    
N3    C19   A    
C68   C83   A    
C9    H1    S    
C83   H19   S    
C17   O26   S    
C43   C47   A    
C76   C80   A    
C67   C84   A    
C20   C56   A    
C81   H17   S    
C19   O28   S    
C4    O14   A    
C65   C82   A    
C13   O21   S    
C67   C71   A    
C77   H13   S    
C15   O23   S    
C52   H24   S    
C45   C49   A    
C16   O24   S    
C62   C65   A    
