data_str_m3_o14_o16_f0_pcu.sym.51
_audit_creation_date              2012-12-10T17:42:43-0500
_audit_creation_method            fapswitch 2.2
_symmetry_space_group_name_H-M    P1
_symmetry_Int_Tables_number       1
_space_group_crystal_system       triclinic
_cell_length_a                    9.963985
_cell_length_b                    10.752111
_cell_length_c                    13.089421
_cell_angle_alpha                 94.749979
_cell_angle_beta                  69.170928
_cell_angle_gamma                 90.455745
_cell_volume                      1305.82306323

loop_
_atom_site_label
_atom_site_type_symbol
_atom_type_description
_atom_site_fract_x
_atom_site_fract_y
_atom_site_fract_z
_atom_type_partial_charge
C1    C     C_R   0.505121 0.737887 0.488512 0.920793
C2    C     C_R   0.368116 0.461480 0.820118 -0.223063
C3    C     C_R   0.297726 0.868942 0.413266 -0.105945
C4    C     C_R   0.419761 0.487690 0.703367 0.929577
C5    C     C_R   0.170044 0.926892 0.420403 -0.134010
C6    C     C_R   0.135394 0.045796 0.472802 -0.159636
C7    C     C_R   0.234560 0.110884 0.508164 -0.088737
C8    C     C_R   0.372914 0.058292 0.489640 0.134790
C9    C     C_R   0.394790 0.930618 0.456466 0.132112
C10   C     C_R   0.510856 0.868765 0.471123 -0.117740
C11   C     C_R   0.623098 0.935822 0.486805 -0.205690
C12   C     C_R   0.437268 0.458289 0.979955 0.115802
C13   C     C_R   0.614381 0.063366 0.500197 -0.142143
C14   C     C_R   0.490263 0.125829 0.503393 -0.134796
C15   C     C_R   0.797153 0.686213 0.622237 -0.226352
C16   C     C_R   0.496360 0.259978 0.503817 0.862151
C17   C     C_R   0.834356 0.798684 0.662407 -0.158314
C18   C     C_R   0.973420 0.811060 0.663430 -0.080436
C19   C     C_R   0.070783 0.706345 0.624955 0.393037
C20   C     C_R   0.042707 0.598520 0.560302 0.067627
C21   C     C_R   0.898585 0.594381 0.559985 0.098687
C22   C     C_R   0.957188 0.408368 0.442869 0.038440
C23   C     C_R   0.469352 0.428479 0.867070 0.011399
C24   C     C_R   0.098435 0.408658 0.444659 -0.195081
C25   C     C_R   0.580720 0.499093 0.295074 0.917923
C26   C     C_R   0.776594 0.357677 0.009437 -0.125056
C27   C     C_R   0.631481 0.480059 0.175369 -0.128604
C28   C     C_R   0.222085 0.477245 0.889274 0.442470
C29   C     C_R   0.185878 0.485721 0.002758 -0.192878
C30   C     C_R   0.292593 0.481812 0.047904 -0.176154
C31   C     C_2   0.925679 0.303523 0.375488 0.403958
C32   C     C_2   0.720492 0.898312 0.706485 0.366269
C33   C     C_2   0.006446 0.925012 0.723589 0.571516
C34   C     C_R   0.548834 0.452071 0.022284 0.012883
C35   C     C_R   0.675263 0.381076 0.961326 0.110405
C36   C     C_R   0.697610 0.334143 0.853779 -0.145641
C37   C     C_R   0.598080 0.360947 0.805866 -0.142142
C38   C     C_R   0.539400 0.515092 0.122788 0.308197
C39   C     C_R   0.752484 0.403819 0.117285 -0.232426
Cl1   Cl    Cl    0.183545 0.706658 0.701263 -0.506510
Cl2   Cl    Cl    0.435537 0.654844 0.172366 -0.674090
Cl3   Cl    Cl    0.079041 0.472705 0.840006 -0.604342
H1    H     H_    0.826318 0.377177 0.155526 0.218600
H2    H     H_    0.870973 0.299340 0.965451 0.183643
H3    H     H_    0.259432 0.487426 0.136349 0.193766
H4    H     H_    0.074507 0.496380 0.056497 0.181167
H5    H     H_    0.618846 0.321588 0.722755 0.178690
H6    H     H_    0.716770 0.889779 0.491425 0.179763
H7    H     H_    0.983742 0.215300 0.362557 0.024679
H8    H     H_    0.608223 0.873034 0.736887 0.114094
H9    H     H_    0.922195 0.975041 0.790965 0.093288
H10   H     H_    0.318694 0.775695 0.373812 0.209113
H11   H     H_    0.094878 0.877027 0.390294 0.153341
H12   H     H_    0.030801 0.087091 0.487584 0.139085
H13   H     H_    0.195418 0.198030 0.556315 0.181163
H14   H     H_    0.704761 0.112778 0.510135 0.182992
H15   H     H_    0.685834 0.674116 0.640244 0.225851
H16   H     H_    0.793323 0.279045 0.805973 0.179978
H17   H     H_    0.174998 0.335199 0.398589 0.139079
N1    N     N_R   0.856860 0.501200 0.500990 -0.107850
N2    N     N_R   0.142450 0.501280 0.501020 -0.088204
O1    O     O_R   0.385310 0.683220 0.500000 -0.588932
O2    O     O_2   0.749332 0.008816 0.703050 -0.622763
O3    O     O_2   0.128360 0.963574 0.699536 -0.553737
O4    O     O_R   0.614640 0.683250 0.500010 -0.653718
O5    O     O_R   0.328400 0.499950 0.653610 -0.497686
O6    O     O_R   0.557730 0.499970 0.653620 -0.657131
O7    O     O_R   0.385360 0.316750 0.499990 -0.647070
O8    O     O_R   0.614690 0.316780 0.500000 -0.588535
O9    O     O_R   0.442270 0.500030 0.346380 -0.598541
O10   O     O_R   0.671600 0.500050 0.346390 -0.558002
O11   O     O_2   0.843431 0.315307 0.327128 -0.556920
Zn1   Zn    Zn3+2 0.346880 0.499980 0.499990 1.019784
Zn2   Zn    Zn3+2 0.653120 0.500020 0.500010 0.982763

loop_
_geom_bond_atom_site_label_1
_geom_bond_atom_site_label_2
_ccdc_geom_bond_type
C24   N2    A    
C30   H3    S    
C35   C36   A    
C7    H13   S    
C1    O1    A    
C26   H2    S    
C7    C8    A    
C12   C23   A    
C5    H11   S    
C36   C37   A    
C6    H12   S    
C34   C35   A    
C36   H16   S    
C33   O3    D    
C22   N1    A    
C5    C6    A    
C26   C39   A    
C27   C38   A    
C18   C19   A    
C28   Cl3   S    
C20   N2    A    
C19   C20   A    
C27   C39   A    
C8    C9    A    
C1    O4    A    
O1    Zn1   S    
C25   O10   A    
C37   H5    S    
C9    C10   A    
C13   H14   S    
C13   C14   A    
C15   H15   S    
C11   H6    S    
C31   H7    S    
C22   C31   S    
C1    C10   S    
C21   N1    A    
C19   Cl1   S    
C39   H1    S    
N2    Zn1   S    
O7    Zn1   S    
C23   C37   A    
O5    Zn1   S    
O4    Zn2   S    
C2    C4    S    
C29   C30   A    
C3    C9    A    
C4    O6    A    
O9    Zn1   S    
C17   C18   A    
O8    Zn2   S    
O6    Zn2   S    
C32   H8    S    
C38   Cl2   S    
C16   O7    A    
C31   O11   D    
C14   C16   S    
C25   C27   S    
C12   C34   A    
C15   C17   A    
C28   C29   A    
C8    C14   A    
C12   C30   A    
C34   C38   A    
C16   O8    A    
C32   O2    D    
C3    C5    A    
O10   Zn2   S    
C3    H10   S    
C6    C7    A    
C33   H9    S    
C29   H4    S    
C4    O5    A    
C11   C13   A    
C24   H17   S    
N1    Zn2   S    
C22   C24   A    
C18   C33   S    
C10   C11   A    
C26   C35   A    
C15   C21   A    
C20   C21   A    
C2    C23   A    
C17   C32   S    
C2    C28   A    
C25   O9    A    
