data_str_m3_o14_o28_f0_pcu.sym.104
_audit_creation_date              2012-12-10T17:53:13-0500
_audit_creation_method            fapswitch 2.2
_symmetry_space_group_name_H-M    P1
_symmetry_Int_Tables_number       1
_space_group_crystal_system       triclinic
_cell_length_a                    23.400713
_cell_length_b                    10.725699
_cell_length_c                    9.871134
_cell_angle_alpha                 89.973835
_cell_angle_beta                  89.231939
_cell_angle_gamma                 91.863485
_cell_volume                      2476.01235066

loop_
_atom_site_label
_atom_site_type_symbol
_atom_type_description
_atom_site_fract_x
_atom_site_fract_y
_atom_site_fract_z
_atom_type_partial_charge
C1    C     C_R   0.507863 0.262272 0.500597 0.915920
C2    C     C_R   0.121285 0.604691 0.515114 0.567542
C3    C     C_R   0.236129 0.491658 0.391462 0.467784
C4    C     C_R   0.389311 0.498639 0.501125 0.925753
C5    C     C_R   0.295743 0.496015 0.385437 -0.336265
C6    C     C_R   0.327023 0.495289 0.505507 -0.162989
C7    C     C_R   0.298458 0.490125 0.631456 -0.323043
C8    C     C_R   0.239157 0.492383 0.638379 0.481946
C9    C     C_R   0.208250 0.492751 0.518023 0.133142
C10   C     C_R   0.762073 0.469829 0.609795 -0.117281
C11   C     C_R   0.702842 0.472236 0.613645 -0.222536
C12   C     C_R   0.966813 0.265503 0.517830 0.488080
C13   C     C_R   0.672904 0.499334 0.495770 -0.031951
C14   C     C_R   0.702852 0.524204 0.374063 -0.230278
C15   C     C_R   0.762117 0.522123 0.370419 -0.098753
C16   C     C_R   0.499849 0.741245 0.500734 0.900749
C17   C     C_R   0.791601 0.494806 0.488281 0.320483
C18   C     C_R   0.541788 0.123278 0.750212 -0.277017
C19   C     C_R   0.530601 0.064582 0.876723 0.556351
C20   C     C_R   0.498805 0.952310 0.876646 -0.214205
C21   C     C_R   0.484628 0.892683 0.755522 -0.231201
C22   C     C_R   0.503423 0.943094 0.629186 0.049501
C23   C     C_R   0.026319 0.267441 0.524333 -0.271135
C24   C     C_R   0.522643 0.067434 0.628298 0.050671
C25   C     C_R   0.520940 0.132051 0.504151 -0.192301
C26   C     C_R   0.524262 0.067908 0.382411 -0.286837
C27   C     C_R   0.522486 0.939732 0.383162 0.475672
C28   C     C_R   0.610677 0.500371 0.498960 0.847556
C29   C     C_R   0.505531 0.876194 0.503850 -0.250439
C30   C     C_R   0.422483 0.341184 0.142714 -0.150783
C31   C     C_R   0.383912 0.264186 0.073344 -0.197673
C32   C     C_R   0.383753 0.264795 0.933173 -0.183468
C33   C     C_R   0.422148 0.342440 0.861666 -0.161181
C34   C     C_R   0.057931 0.380155 0.522249 -0.082990
C35   C     C_R   0.460768 0.424149 0.928693 0.141347
C36   C     C_R   0.460972 0.423655 0.073610 0.151997
C37   C     C_R   0.538174 0.570309 0.070351 -0.108594
C38   C     C_R   0.537832 0.571493 0.927059 -0.150179
C39   C     C_R   0.882230 0.605530 0.482876 0.512867
C40   C     C_R   0.878456 0.382481 0.492384 0.509348
C41   C     C_R   0.938070 0.379064 0.503608 -0.107940
C42   C     C_R   0.969896 0.493703 0.501273 -0.135921
C43   C     C_R   0.942084 0.608378 0.488313 -0.104991
C44   C     C_3   0.922176 0.110825 0.644729 0.197413
C45   C     C_R   0.029826 0.493663 0.511084 -0.027843
C46   C     C_3   0.970976 0.043348 0.713509 -0.390985
C47   C     C_3   0.948194 0.949777 0.819067 -0.910163
C48   C     C_3   0.572995 0.230171 0.006220 0.069424
C49   C     C_3   0.637943 0.231451 0.984158 -0.375013
C50   C     C_3   0.663584 0.363230 0.999428 -0.952177
C51   C     C_3   0.596256 0.855767 0.264502 0.094458
C52   C     C_3   0.620482 0.869505 0.120320 -0.321429
C53   C     C_3   0.679073 0.812262 0.105710 -0.992554
C54   C     C_3   0.950071 0.877803 0.338291 0.181589
C55   C     C_3   0.005722 0.952236 0.304608 -0.392772
C56   C     C_R   0.061758 0.607145 0.509302 -0.073200
C57   C     C_3   0.998331 0.042579 0.187355 -0.907065
C58   C     C_3   0.206101 0.373109 0.213061 0.052474
C59   C     C_3   0.156258 0.358502 0.115269 -0.313958
C60   C     C_3   0.158375 0.235952 0.037206 -0.900766
C61   C     C_3   0.208346 0.603608 0.822229 0.068440
C62   C     C_3   0.254719 0.620603 0.929653 -0.381362
C63   C     C_3   0.242105 0.728438 0.025100 -0.862209
C64   C     C_R   0.033947 0.720002 0.499066 -0.276321
C65   C     C_R   0.974841 0.721754 0.483310 0.490583
C66   C     C_R   0.117528 0.382233 0.528931 0.580530
H1    H     H_    0.680542 0.451966 0.708034 0.161728
H2    H     H_    0.354403 0.203122 0.879326 0.157824
H3    H     H_    0.421149 0.333549 0.754418 0.210119
H4    H     H_    0.568880 0.629539 0.872033 0.157543
H5    H     H_    0.058073 0.807780 0.502270 0.192366
H6    H     H_    0.884909 0.044887 0.633720 0.215615
H7    H     H_    0.907169 0.188238 0.710381 0.099879
H8    H     H_    0.996574 0.992756 0.637224 0.262470
H9    H     H_    0.999850 0.113033 0.763505 0.199874
H10   H     H_    0.922332 0.997672 0.897231 0.251821
H11   H     H_    0.984587 0.904747 0.868304 0.259421
H12   H     H_    0.785166 0.541748 0.276551 0.132904
H13   H     H_    0.921268 0.875889 0.770121 0.293737
H14   H     H_    0.680522 0.545859 0.282259 0.145696
H15   H     H_    0.564422 0.267868 0.109006 0.183433
H16   H     H_    0.552431 0.294322 0.935986 0.144165
H17   H     H_    0.657653 0.170799 0.060425 0.230475
H18   H     H_    0.648559 0.195531 0.881730 0.217112
H19   H     H_    0.643220 0.428017 0.928502 0.260384
H20   H     H_    0.710225 0.363313 0.977217 0.265358
H21   H     H_    0.656831 0.396805 0.104578 0.267730
H22   H     H_    0.602268 0.759334 0.301612 0.160366
H23   H     H_    0.529172 0.116636 0.286658 0.213805
H24   H     H_    0.621902 0.920385 0.330735 0.117432
H25   H     H_    0.590864 0.825402 0.046208 0.230803
H26   H     H_    0.624865 0.969785 0.095359 0.250209
H27   H     H_    0.709033 0.852811 0.181447 0.281738
H28   H     H_    0.696738 0.831718 0.002617 0.274408
H29   H     H_    0.675312 0.709683 0.119617 0.257533
H30   H     H_    0.047775 0.179828 0.530708 0.188216
H31   H     H_    0.913304 0.939866 0.327375 0.217311
H32   H     H_    0.943151 0.800641 0.263815 0.096472
H33   H     H_    0.019922 0.006240 0.394419 0.250859
H34   H     H_    0.566983 0.209108 0.743305 0.156545
H35   H     H_    0.039784 0.886807 0.276763 0.208397
H36   H     H_    0.984255 0.990666 0.096139 0.257422
H37   H     H_    0.039732 0.092095 0.164206 0.268162
H38   H     H_    0.966247 0.112857 0.214286 0.286382
H39   H     H_    0.201982 0.295890 0.288880 0.171410
H40   H     H_    0.247154 0.364716 0.156088 0.141935
H41   H     H_    0.115270 0.361097 0.173376 0.220314
H42   H     H_    0.157633 0.437183 0.042120 0.246924
H43   H     H_    0.198472 0.232808 0.975909 0.280220
H44   H     H_    0.121441 0.228144 0.967890 0.270066
H45   H     H_    0.486368 0.908489 0.971941 0.189835
H46   H     H_    0.156126 0.155600 0.108352 0.256954
H47   H     H_    0.317203 0.499338 0.287499 0.184861
H48   H     H_    0.321994 0.484265 0.724736 0.185128
H49   H     H_    0.165627 0.609209 0.871900 0.168417
H50   H     H_    0.211421 0.682374 0.748124 0.162440
H51   H     H_    0.257634 0.533768 0.989998 0.251963
H52   H     H_    0.296783 0.639923 0.879307 0.208649
H53   H     H_    0.239387 0.816769 0.967081 0.253166
H54   H     H_    0.276948 0.739147 0.099901 0.270073
H55   H     H_    0.201193 0.709656 0.080959 0.285914
H56   H     H_    0.458149 0.808807 0.764216 0.194791
H57   H     H_    0.785154 0.448980 0.701006 0.127811
H58   H     H_    0.570013 0.624860 0.123679 0.157444
H59   H     H_    0.421636 0.331020 0.249884 0.206305
H60   H     H_    0.354644 0.202086 0.128816 0.149776
N1    N     N_R   0.852370 0.494182 0.485775 -0.363457
N2    N     N_R   0.147563 0.493300 0.523452 -0.316032
N3    N     N_R   0.499460 0.498800 0.142780 -0.125887
N4    N     N_R   0.499440 0.498720 0.857170 -0.129142
O1    O     O_R   0.500000 0.316780 0.614690 -0.645931
O2    O     O_R   0.583850 0.500050 0.614640 -0.626953
O3    O     O_R   0.583840 0.500030 0.385310 -0.638592
O4    O     O_2   0.853582 0.712532 0.476795 -0.531868
O5    O     O_3   0.938046 0.150947 0.512453 -0.615551
O6    O     O_3   0.549027 0.107519 0.003051 -0.668604
O7    O     O_3   0.536871 0.879098 0.264453 -0.611707
O8    O     O_3   0.949208 0.835822 0.474406 -0.615186
O9    O     O_3   0.204262 0.491911 0.274570 -0.637917
O10   O     O_3   0.210959 0.483984 0.762168 -0.637418
O11   O     O_2   0.846314 0.275852 0.488229 -0.535952
O12   O     O_2   0.145446 0.274539 0.539410 -0.580093
O13   O     O_2   0.152872 0.712233 0.510213 -0.585554
O14   O     O_R   0.500000 0.316750 0.385360 -0.650197
O15   O     O_R   0.416160 0.499970 0.614690 -0.644261
O16   O     O_R   0.416150 0.499950 0.385360 -0.635336
O17   O     O_R   0.500000 0.683250 0.614640 -0.628432
O18   O     O_R   0.500000 0.683220 0.385310 -0.564022
Zn1   Zn    Zn3+2 0.500000 0.500020 0.653130 0.915578
Zn2   Zn    Zn3+2 0.500000 0.499980 0.346870 0.938556

loop_
_geom_bond_atom_site_label_1
_geom_bond_atom_site_label_2
_ccdc_geom_bond_type
C58   O9    S    
C38   H4    S    
C2    O13   S    
C22   C29   A    
C53   H29   S    
C41   C42   A    
C19   C20   A    
C47   H13   S    
C34   C66   A    
C7    C8    A    
C54   O8    S    
C23   H30   S    
C26   H23   S    
C57   H36   S    
C12   C23   A    
C26   C27   A    
C62   C63   S    
C16   O17   A    
C18   C24   A    
C38   N4    A    
C7    H48   S    
O17   Zn1   S    
O18   Zn2   S    
C47   H10   S    
C51   H24   S    
C30   C31   A    
C15   H12   S    
C27   C29   A    
C10   C17   A    
C20   H45   S    
C48   H15   S    
C18   C19   A    
C46   C47   S    
C64   H5    S    
C21   H56   S    
C62   H51   S    
O14   Zn2   S    
C60   H43   S    
C50   H19   S    
O16   Zn2   S    
C35   C36   A    
C45   C56   A    
C11   H1    S    
C8    C9    A    
C12   O5    S    
C61   H49   S    
C56   C64   A    
C54   H31   S    
C14   H14   S    
C33   H3    S    
C32   H2    S    
C25   C26   A    
C44   O5    S    
C30   H59   S    
C59   C60   S    
C21   C22   A    
C1    C25   S    
O2    Zn1   S    
C61   C62   S    
C18   H34   S    
N4    Zn1   S    
C46   H9    S    
C63   H55   S    
C44   C46   S    
C57   H37   S    
C9    N2    S    
C39   N1    A    
C53   H27   S    
C28   O3    A    
C60   H44   S    
C24   C25   A    
C4    C6    S    
C10   H57   S    
C17   N1    S    
C39   C43   A    
C1    O1    A    
C16   C29   S    
C40   N1    A    
C59   H41   S    
C51   C52   S    
C28   O2    A    
C42   C45   A    
C37   C38   A    
C60   H46   S    
C40   O11   S    
C37   H58   S    
C63   H53   S    
C31   C32   A    
C48   H16   S    
C43   C65   A    
C23   C34   A    
C4    O16   A    
C61   H50   S    
C13   C28   S    
C34   C45   A    
C27   O7    S    
C3    C9    A    
C35   N4    A    
C50   H21   S    
C65   O8    S    
C51   O7    S    
C48   C49   S    
C55   C57   S    
C22   C24   A    
O1    Zn1   S    
C3    O9    S    
C42   C43   A    
C47   H11   S    
C46   H8    S    
C52   C53   S    
C49   H18   S    
C12   C41   A    
C15   C17   A    
C57   H38   S    
C54   C55   S    
C40   C41   A    
C5    H47   S    
C53   H28   S    
C48   O6    S    
O3    Zn2   S    
C3    C5    A    
C51   H22   S    
C61   O10   S    
C6    C7    A    
C66   O12   S    
C55   H35   S    
C59   H42   S    
C30   C36   A    
C8    O10   S    
C58   H39   S    
C64   C65   A    
C49   H17   S    
C19   O6    S    
N3    Zn2   S    
C1    O14   A    
C2    C56   A    
C36   N3    A    
C32   C33   A    
C63   H54   S    
C11   C13   A    
C16   O18   A    
C5    C6    A    
C4    O15   A    
C33   C35   A    
C66   N2    A    
C44   H6    S    
C44   H7    S    
C58   C59   S    
C62   H52   S    
C52   H26   S    
C10   C11   A    
C50   H20   S    
C20   C21   A    
C49   C50   S    
C55   H33   S    
C14   C15   A    
C54   H32   S    
C52   H25   S    
C31   H60   S    
C58   H40   S    
C13   C14   A    
C37   N3    A    
O15   Zn1   S    
C39   O4    S    
C2    N2    A    
