data_str_m4_o14_o24_f0_acs.sym.88
_audit_creation_date              2012-12-11T14:25:02-0500
_audit_creation_method            fapswitch 2.2
_symmetry_space_group_name_H-M    P1
_symmetry_Int_Tables_number       1
_space_group_crystal_system       triclinic
_cell_length_a                    19.141612
_cell_length_b                    11.121281
_cell_length_c                    18.827586
_cell_angle_alpha                 90.055089
_cell_angle_beta                  91.226409
_cell_angle_gamma                 89.655018
_cell_volume                      4007.01014885

loop_
_atom_site_label
_atom_site_type_symbol
_atom_type_description
_atom_site_fract_x
_atom_site_fract_y
_atom_site_fract_z
_atom_type_partial_charge
C1    C     C_R   0.729636 0.374022 0.145472 0.547879
C2    C     C_R   0.270998 0.372452 0.855079 0.551459
C3    C     C_R   0.229640 0.874028 0.145474 0.539536
C4    C     C_R   0.771007 0.872426 0.855089 0.561181
C5    C     C_3   0.503147 0.050565 0.021995 0.423320
C6    C     C_3   0.550072 0.107252 0.966936 0.405580
C7    C     C_3   0.003156 0.550567 0.021995 0.423668
C8    C     C_3   0.050072 0.607274 0.966936 0.405075
C9    C     C_R   0.756397 0.898985 0.930224 0.038967
C10   C     C_R   0.245833 0.904323 0.071200 -0.006515
C11   C     C_R   0.256381 0.399042 0.930206 0.040405
C12   C     C_R   0.745820 0.404309 0.071194 -0.007996
C13   C     C_R   0.699839 0.847385 0.967627 0.071561
C14   C     C_R   0.301920 0.850667 0.033537 0.015913
C15   C     C_R   0.199823 0.347449 0.967606 0.072246
C16   C     C_R   0.801916 0.350677 0.033537 0.014882
C17   C     C_R   0.702617 0.846307 0.043161 0.035502
C18   C     C_R   0.298693 0.848706 0.957964 0.022825
C19   C     C_R   0.202601 0.346355 0.043139 0.035336
C20   C     C_R   0.798693 0.348708 0.957964 0.023425
C21   C     C_R   0.810356 0.959388 0.041884 -0.160073
C22   C     C_R   0.192019 0.966913 0.959804 -0.152874
C23   C     C_R   0.310342 0.459430 0.041869 -0.160237
C24   C     C_R   0.691996 0.466852 0.959790 -0.152096
C25   C     C_R   0.811405 0.951699 0.969222 -0.144222
C26   C     C_R   0.191929 0.961516 0.032574 -0.169779
C27   C     C_R   0.311389 0.451754 0.969205 -0.143360
C28   C     C_R   0.691903 0.461460 0.032560 -0.170052
C29   C     C_R   0.640690 0.796410 0.933083 -0.008750
C30   C     C_R   0.360480 0.796919 0.068006 -0.043755
C31   C     C_R   0.140673 0.296489 0.933056 -0.008611
C32   C     C_R   0.860478 0.296947 0.068013 -0.043841
C33   C     C_R   0.091952 0.232042 0.971116 -0.074157
C34   C     C_R   0.907694 0.227886 0.030045 -0.060573
C35   C     C_R   0.591967 0.731977 0.971151 -0.074410
C36   C     C_R   0.407697 0.727872 0.030030 -0.060053
C37   C     C_R   0.599879 0.719088 0.044217 -0.061671
C38   C     C_R   0.399813 0.715509 0.956918 -0.108311
C39   C     C_R   0.099866 0.219129 0.044181 -0.061970
C40   C     C_R   0.899813 0.215511 0.956935 -0.108330
C41   C     C_R   0.654282 0.776238 0.080198 -0.051932
C42   C     C_R   0.346337 0.776124 0.920878 -0.072084
C43   C     C_R   0.154265 0.276275 0.080169 -0.052341
C44   C     C_R   0.846345 0.276133 0.920886 -0.070986
C45   C     C_R   0.533664 0.155204 0.143899 0.564983
C46   C     C_R   0.465636 0.155398 0.856320 0.596345
C47   C     C_R   0.033662 0.655204 0.143900 0.564573
C48   C     C_R   0.965630 0.655398 0.856324 0.591668
C49   C     C_R   0.754247 0.914328 0.079478 -0.006265
C50   C     C_R   0.247035 0.917774 0.921721 0.007110
C51   C     C_R   0.254235 0.414361 0.079462 -0.006580
C52   C     C_R   0.747028 0.417751 0.921714 0.009450
C53   C     C_R   0.458121 0.147001 0.564940 0.005245
C54   C     C_R   0.510956 0.160241 0.427794 0.009471
C55   C     C_R   0.980557 0.662533 0.569321 0.001140
C56   C     C_R   0.012811 0.657668 0.426048 0.011423
C57   C     C_R   0.497388 0.047679 0.537427 0.043168
C58   C     C_R   0.532865 0.067229 0.474841 0.020122
C59   C     C_R   0.972318 0.559082 0.527794 0.028544
C60   C     C_R   0.005976 0.549458 0.464206 0.048535
C61   C     C_R   0.460560 0.243099 0.449315 -0.150397
C62   C     C_R   0.437712 0.241110 0.519258 -0.156791
C63   C     C_R   0.002639 0.766626 0.461354 -0.165457
C64   C     C_R   0.002050 0.766754 0.535333 -0.163134
C65   C     C_R   0.503666 0.929343 0.568146 -0.086694
C66   C     C_R   0.586750 0.986987 0.458393 -0.072396
C67   C     C_R   0.936573 0.460381 0.550302 -0.089135
C68   C     C_R   0.026086 0.431464 0.442807 -0.086613
C69   C     C_R   0.965007 0.349981 0.539832 -0.147573
C70   C     C_R   0.006818 0.333990 0.481609 -0.179529
C71   C     C_R   0.545462 0.841211 0.539433 -0.145265
C72   C     C_R   0.586290 0.869872 0.483426 -0.106585
C73   C     C_R   0.792391 0.824172 0.561466 -0.011813
C74   C     C_R   0.246608 0.920912 0.426281 0.005483
C75   C     C_R   0.239642 0.454077 0.586732 -0.009135
C76   C     C_R   0.717351 0.367021 0.438904 -0.008552
C77   C     C_R   0.832852 0.911851 0.529646 0.046049
C78   C     C_R   0.194196 0.979199 0.464996 0.040670
C79   C     C_R   0.284726 0.536406 0.555665 0.038225
C80   C     C_R   0.657801 0.398002 0.480839 0.021785
C81   C     C_R   0.803634 0.970687 0.471757 0.038741
C82   C     C_R   0.213741 0.049136 0.522269 0.028617
C83   C     C_R   0.296766 0.528483 0.482061 0.030568
C84   C     C_R   0.666177 0.402722 0.555860 0.035659
C85   C     C_R   0.738774 0.792439 0.444219 -0.165309
C86   C     C_R   0.325607 0.951061 0.525364 -0.147273
C87   C     C_R   0.194188 0.400070 0.471409 -0.153000
C88   C     C_R   0.786605 0.345637 0.545602 -0.162204
C89   C     C_R   0.742484 0.967623 0.149751 0.545956
C90   C     C_R   0.257798 0.968036 0.850580 0.549748
C91   C     C_R   0.242481 0.467630 0.149747 0.546067
C92   C     C_R   0.757796 0.468031 0.850580 0.536418
C93   C     C_R   0.747731 0.756612 0.516298 -0.155639
C94   C     C_R   0.314009 0.911174 0.455849 -0.141264
C95   C     C_R   0.186587 0.405586 0.544593 -0.158518
C96   C     C_R   0.781970 0.354960 0.472577 -0.176678
C97   C     C_R   0.894554 0.957565 0.559985 -0.082656
C98   C     C_R   0.122292 0.965883 0.451385 -0.081514
C99   C     C_R   0.322684 0.617861 0.598483 -0.059271
C100  C     C_R   0.591482 0.431854 0.452035 -0.106626
C101  C     C_R   0.919759 0.065271 0.539233 -0.157373
C102  C     C_R   0.074308 0.040480 0.482406 -0.157755
C103  C     C_R   0.379389 0.677619 0.571759 -0.118551
C104  C     C_R   0.537257 0.467033 0.495522 -0.145225
C105  C     C_R   0.884683 0.129266 0.486768 -0.145435
C106  C     C_R   0.096776 0.121710 0.533407 -0.140239
C107  C     C_R   0.397282 0.661181 0.501455 -0.161187
C108  C     C_R   0.544151 0.459012 0.568656 -0.111333
C109  C     C_R   0.821501 0.089833 0.462321 -0.074063
C110  C     C_R   0.166115 0.131027 0.548602 -0.092302
C111  C     C_R   0.357466 0.586596 0.457204 -0.101946
C112  C     C_R   0.607648 0.423766 0.598792 -0.070916
C113  C     C_R   0.760009 0.908670 0.424339 -0.007241
C114  C     C_R   0.273882 0.016772 0.560249 -0.018002
C115  C     C_R   0.248442 0.460774 0.438324 -0.004615
C116  C     C_R   0.733554 0.390111 0.586486 0.002323
C117  C     C_R   0.712172 0.337469 0.362430 0.543122
C118  C     C_R   0.266387 0.386728 0.649627 0.523644
C119  C     C_R   0.228698 0.874189 0.356381 0.543294
C120  C     C_R   0.791544 0.823692 0.640316 0.570652
C121  C     C_R   0.535149 0.156893 0.354309 0.521773
C122  C     C_R   0.437551 0.151153 0.639425 0.534492
C123  C     C_R   0.036088 0.655938 0.353965 0.545643
C124  C     C_R   0.962873 0.657059 0.644707 0.537562
C125  C     C_R   0.743806 0.966848 0.355072 0.508031
C126  C     C_R   0.273614 0.028436 0.637957 0.549190
C127  C     C_R   0.240955 0.481632 0.360749 0.540422
C128  C     C_R   0.754095 0.461777 0.649020 0.522020
C129  C     C_3   0.493931 0.278353 0.977476 -0.187090
C130  C     C_3   0.446508 0.220833 0.034115 -0.207700
C131  C     C_3   0.993911 0.778353 0.977481 -0.186735
C132  C     C_3   0.946498 0.720812 0.034121 -0.207677
C133  C     C_3   0.559331 0.219822 0.013679 -0.141473
C134  C     C_3   0.437954 0.107357 0.986737 -0.139901
C135  C     C_3   0.059319 0.719845 0.013681 -0.141436
C136  C     C_3   0.937955 0.607338 0.986741 -0.139625
C137  C     C_3   0.511332 0.162214 0.068992 0.001949
C138  C     C_3   0.486162 0.164348 0.931387 0.015559
C139  C     C_3   0.011329 0.662215 0.068994 0.002258
C140  C     C_3   0.986154 0.664349 0.931390 0.016520
Cr1   Cr    Cr6+3 0.772820 0.169820 0.252640 1.006100
Cr2   Cr    Cr6+3 0.227180 0.169820 0.747360 0.992783
Cr3   Cr    Cr6+3 0.272820 0.669820 0.252640 1.004584
Cr4   Cr    Cr6+3 0.727180 0.669820 0.747360 1.006680
Cr5   Cr    Cr6+3 0.615040 0.323610 0.249150 0.990443
Cr6   Cr    Cr6+3 0.384960 0.323610 0.750850 0.996174
Cr7   Cr    Cr6+3 0.115040 0.823610 0.249150 1.007086
Cr8   Cr    Cr6+3 0.884960 0.823610 0.750850 1.000295
Cr9   Cr    Cr6+3 0.616720 0.011130 0.250660 1.028180
Cr10  Cr    Cr6+3 0.383280 0.011130 0.749340 1.001486
Cr11  Cr    Cr6+3 0.116720 0.511130 0.250660 1.030935
Cr12  Cr    Cr6+3 0.883280 0.511130 0.749340 1.008919
H1    H     H_    0.609908 0.263597 0.026132 0.143643
H2    H     H_    0.388096 0.060496 0.974544 0.135634
H3    H     H_    0.109889 0.763645 0.026132 0.143833
H4    H     H_    0.888103 0.560462 0.974548 0.136031
H5    H     H_    0.441240 0.311828 0.413083 0.114761
H6    H     H_    0.403234 0.311870 0.537410 0.134026
H7    H     H_    0.998287 0.849153 0.432035 0.125251
H8    H     H_    0.015472 0.847062 0.564417 0.131967
H9    H     H_    0.472987 0.894063 0.609916 0.143400
H10   H     H_    0.625932 0.014880 0.423427 0.157897
H11   H     H_    0.893136 0.471685 0.583142 0.175016
H12   H     H_    0.058268 0.405516 0.399680 0.166056
H13   H     H_    0.949344 0.279458 0.574101 0.115029
H14   H     H_    0.018583 0.247179 0.460711 0.120707
H15   H     H_    0.545729 0.750473 0.560382 0.117054
H16   H     H_    0.613978 0.799242 0.457988 0.124025
H17   H     H_    0.709677 0.736590 0.407044 0.127156
H18   H     H_    0.372519 0.925683 0.552891 0.132173
H19   H     H_    0.158147 0.346504 0.440464 0.131880
H20   H     H_    0.833484 0.313264 0.571169 0.135925
H21   H     H_    0.922165 0.915574 0.602913 0.166010
H22   H     H_    0.102541 0.894787 0.419297 0.166352
H23   H     H_    0.310436 0.630520 0.653952 0.133179
H24   H     H_    0.578560 0.436139 0.396560 0.171319
H25   H     H_    0.719908 0.679653 0.536210 0.147121
H26   H     H_    0.355249 0.865741 0.427765 0.140893
H27   H     H_    0.141912 0.365017 0.568732 0.132708
H28   H     H_    0.828181 0.344343 0.441479 0.141783
H29   H     H_    0.965662 0.095625 0.565962 0.102444
H30   H     H_    0.020942 0.035235 0.464924 0.119474
H31   H     H_    0.410686 0.732445 0.606897 0.096097
H32   H     H_    0.488086 0.493247 0.471519 0.110818
H33   H     H_    0.904081 0.207918 0.463157 0.125823
H34   H     H_    0.062600 0.177595 0.563593 0.110327
H35   H     H_    0.442960 0.704478 0.480887 0.113131
H36   H     H_    0.500193 0.479546 0.601912 0.133690
H37   H     H_    0.789296 0.148949 0.431392 0.153959
H38   H     H_    0.180671 0.191083 0.588762 0.169582
H39   H     H_    0.379345 0.570286 0.405932 0.143466
H40   H     H_    0.611245 0.415282 0.656052 0.138684
H41   H     H_    0.490587 0.372321 0.957765 0.127312
H42   H     H_    0.404113 0.265952 0.063431 0.133986
H43   H     H_    0.990554 0.872321 0.957774 0.128025
H44   H     H_    0.904099 0.765912 0.063442 0.134757
H45   H     H_    0.853190 0.005312 0.068493 0.141296
H46   H     H_    0.149243 0.014058 0.933424 0.141312
H47   H     H_    0.353179 0.505343 0.068479 0.140738
H48   H     H_    0.649212 0.513966 0.933402 0.140564
H49   H     H_    0.629566 0.807970 0.877145 0.162809
H50   H     H_    0.371608 0.808335 0.123985 0.148914
H51   H     H_    0.129552 0.308071 0.877117 0.161511
H52   H     H_    0.871605 0.308379 0.123990 0.150711
H53   H     H_    0.857427 0.985239 0.943828 0.140615
H54   H     H_    0.146513 0.997353 0.058341 0.141273
H55   H     H_    0.357413 0.485289 0.943813 0.140624
H56   H     H_    0.646475 0.497265 0.058322 0.141005
H57   H     H_    0.049191 0.188999 0.943253 0.092155
H58   H     H_    0.949373 0.181239 0.057993 0.110696
H59   H     H_    0.549204 0.688929 0.943293 0.091275
H60   H     H_    0.449381 0.681225 0.057971 0.110037
H61   H     H_    0.064373 0.163710 0.073375 0.094761
H62   H     H_    0.934438 0.157360 0.927867 0.088032
H63   H     H_    0.564384 0.663685 0.073418 0.094228
H64   H     H_    0.434440 0.657371 0.927843 0.086479
H65   H     H_    0.659625 0.761025 0.136775 0.122261
H66   H     H_    0.340846 0.761037 0.864296 0.133320
H67   H     H_    0.159607 0.261047 0.136744 0.122014
H68   H     H_    0.840859 0.261047 0.864306 0.136544
O1    O     O_R   0.788190 0.043000 0.172520 -0.524729
O2    O     O_R   0.211810 0.043000 0.827480 -0.521442
O3    O     O_R   0.288190 0.543000 0.172520 -0.527112
O4    O     O_R   0.711810 0.543000 0.827480 -0.532498
O5    O     O_R   0.556550 0.253260 0.323480 -0.536563
O6    O     O_R   0.443450 0.253260 0.676520 -0.491661
O7    O     O_R   0.056550 0.753260 0.323480 -0.522417
O8    O     O_R   0.943450 0.753260 0.676520 -0.544107
O9    O     O_R   0.545830 0.051610 0.330160 -0.524208
O10   O     O_R   0.454170 0.051610 0.669840 -0.538944
O11   O     O_R   0.045830 0.551610 0.330160 -0.545148
O12   O     O_R   0.954170 0.551610 0.669840 -0.522751
O13   O     O_R   0.681920 0.959720 0.327070 -0.530778
O14   O     O_R   0.318080 0.959720 0.672930 -0.523746
O15   O     O_R   0.181920 0.459720 0.327070 -0.518313
O16   O     O_R   0.818080 0.459720 0.672930 -0.533256
O17   O     O_3   0.668190 0.168190 0.250820 -0.274990
O18   O     O_3   0.331810 0.168190 0.749180 -0.296909
O19   O     O_3   0.168190 0.668190 0.250820 -0.260666
O20   O     O_3   0.831810 0.668190 0.749180 -0.288909
O21   O     O_R   0.766240 0.292300 0.176860 -0.506241
O22   O     O_R   0.233760 0.292300 0.823140 -0.518036
O23   O     O_R   0.266240 0.792300 0.176860 -0.512677
O24   O     O_R   0.733760 0.792300 0.823140 -0.515181
O25   O     O_R   0.670310 0.409160 0.168720 -0.524348
O26   O     O_R   0.329690 0.409160 0.831280 -0.530539
O27   O     O_R   0.170310 0.909160 0.168720 -0.526767
O28   O     O_R   0.829690 0.909160 0.831280 -0.523985
O29   O     O_R   0.556160 0.251900 0.173380 -0.513796
O30   O     O_R   0.443840 0.251900 0.826620 -0.506947
O31   O     O_R   0.056160 0.751900 0.173380 -0.513112
O32   O     O_R   0.943840 0.751900 0.826620 -0.509212
O33   O     O_R   0.545410 0.050140 0.168240 -0.454106
O34   O     O_R   0.454590 0.050140 0.831760 -0.486386
O35   O     O_R   0.045410 0.550140 0.168240 -0.455700
O36   O     O_R   0.954590 0.550140 0.831760 -0.487507
O37   O     O_R   0.681530 0.958350 0.176970 -0.494059
O38   O     O_R   0.318470 0.958350 0.823030 -0.511825
O39   O     O_R   0.181530 0.458350 0.176970 -0.495116
O40   O     O_R   0.818470 0.458350 0.823030 -0.512622
O41   O     O_R   0.788610 0.044480 0.334450 -0.531080
O42   O     O_R   0.211390 0.044480 0.665550 -0.510845
O43   O     O_R   0.288610 0.544480 0.334450 -0.539108
O44   O     O_R   0.711390 0.544480 0.665550 -0.538772
O45   O     O_R   0.766630 0.293670 0.326970 -0.507910
O46   O     O_R   0.233370 0.293670 0.673030 -0.543717
O47   O     O_R   0.266630 0.793670 0.326970 -0.504273
O48   O     O_R   0.733370 0.793670 0.673030 -0.480766
O49   O     O_R   0.670730 0.410640 0.330640 -0.534748
O50   O     O_R   0.329270 0.410640 0.669360 -0.531755
O51   O     O_R   0.170730 0.910640 0.330640 -0.537354
O52   O     O_R   0.829270 0.910640 0.669360 -0.523111
F1    F     F_    0.507350 0.933189 0.045289 -0.623901
F2    F     F_    0.603184 0.051790 0.930656 -0.636550
F3    F     F_    0.007368 0.433193 0.045288 -0.623680
F4    F     F_    0.103189 0.551842 0.930649 -0.638688

loop_
_geom_bond_atom_site_label_1
_geom_bond_atom_site_label_2
_ccdc_geom_bond_type
C24   C52   A    
C73   C77   A    
C99   C103  A    
C88   C96   A    
C15   C19   A    
C128  O16   A    
C88   H20   S    
C55   C59   A    
C78   C82   A    
Cr8   O20   S    
Cr8   O52   S    
C5    F1    S    
Cr8   O8    S    
C73   C93   A    
C78   C98   A    
C136  C140  S    
C76   C96   A    
C21   C49   A    
Cr11  O39   S    
C7    C8    S    
C26   H54   S    
C49   C89   S    
C132  C139  S    
C133  C137  S    
C74   C119  S    
C1    C12   S    
Cr7   O31   S    
Cr2   O2    S    
C33   C39   A    
C75   C79   A    
Cr2   O22   S    
Cr6   O30   S    
C37   C41   A    
C120  O48   A    
C82   C110  A    
C92   O4    A    
C13   C29   A    
C35   C37   A    
C38   C42   A    
C6    C133  S    
C7    F3    S    
C53   C122  S    
C18   C42   A    
Cr1   O21   S    
C89   O1    A    
C5    C6    S    
C114  C126  S    
C132  C136  S    
Cr10  O34   S    
C113  C125  S    
Cr9   O33   S    
C122  O6    A    
C23   H47   S    
Cr8   O28   S    
C115  C127  S    
C6    C138  S    
C126  O42   A    
Cr5   O49   S    
C94   H26   S    
C105  H33   S    
C86   C114  A    
C9    C13   A    
C46   O30   A    
C35   H59   S    
C131  C140  S    
C86   C94   A    
C59   C67   A    
C118  O46   A    
C85   C93   A    
C58   C66   A    
C100  C104  A    
C66   C72   A    
C129  C138  S    
C12   C16   A    
C83   C111  A    
C109  H37   S    
Cr10  O18   S    
C50   C90   S    
C100  H24   S    
Cr9   O17   S    
C33   H57   S    
C31   C33   A    
C77   C97   A    
C63   H7    S    
C48   O36   A    
C34   H58   S    
C40   C44   A    
C47   O31   A    
C61   C62   A    
C103  C107  A    
C80   C84   A    
C22   C50   A    
C45   O29   A    
C10   C26   A    
C11   C15   A    
C47   C139  S    
C75   C95   A    
Cr7   O27   S    
C59   C60   A    
C84   C116  A    
C73   C120  S    
C71   H15   S    
C127  O43   A    
C80   C100  A    
C8    C135  S    
C51   C91   S    
C72   H16   S    
Cr4   O48   S    
C121  O5    A    
C3    O27   A    
C31   H51   S    
C14   C30   A    
C25   H53   S    
C2    C11   S    
C2    O26   A    
C92   O40   A    
C19   C43   A    
Cr5   O29   S    
C69   H13   S    
C68   H12   S    
C123  O7    A    
C101  C105  A    
C5    C134  S    
C122  O10   A    
Cr11  O11   S    
Cr8   O32   S    
C121  O9    A    
C48   C140  S    
C9    C25   A    
C102  H30   S    
C56   C123  S    
C83   C115  A    
C111  H39   S    
Cr6   O50   S    
Cr2   O46   S    
C89   O37   A    
C88   C116  A    
C82   C114  A    
C10   C14   A    
C135  H3    S    
C17   C49   A    
Cr4   O20   S    
Cr12  O36   S    
C53   C57   A    
C39   C43   A    
Cr6   O6    S    
C42   H66   S    
Cr10  O14   S    
Cr5   O5    S    
C15   C31   A    
C110  H38   S    
Cr9   O13   S    
C108  C112  A    
Cr12  O12   S    
Cr5   O17   S    
C67   C69   A    
Cr3   O19   S    
Cr1   O45   S    
C48   O32   A    
C135  C139  S    
Cr1   O1    S    
C125  O13   A    
C47   O35   A    
Cr3   O3    S    
C98   C102  A    
C32   H52   S    
C112  H40   S    
C90   O38   A    
C81   C113  A    
C53   C62   A    
Cr12  O40   S    
C13   C17   A    
C23   C51   A    
Cr12  O20   S    
C85   H17   S    
C11   C27   A    
C16   C20   A    
C87   H19   S    
C55   C64   A    
C64   H8    S    
C45   C137  S    
C56   C63   A    
C99   H23   S    
C3    O23   A    
C119  O47   A    
C37   H63   S    
Cr3   O23   S    
C5    C137  S    
C2    O22   A    
C106  H34   S    
C117  O45   A    
C124  O12   A    
C126  O14   A    
C45   O33   A    
C36   H60   S    
C129  C133  S    
C61   H5    S    
C1    O21   A    
C95   H27   S    
C104  H32   S    
C54   C121  S    
C81   C109  A    
Cr2   O42   S    
C20   C44   A    
C23   C27   A    
Cr5   O25   S    
C75   C118  S    
C28   H56   S    
C103  H31   S    
C7    C139  S    
C66   H10   S    
Cr3   O43   S    
Cr1   O41   S    
C125  O41   A    
C131  C132  S    
Cr4   O44   S    
C104  C108  A    
C118  O50   A    
C101  H29   S    
C18   C50   A    
Cr11  O35   S    
C129  C130  S    
C124  O8    A    
C79   C99   A    
Cr2   O18   S    
C21   C25   A    
C55   C124  S    
C133  H1    S    
Cr1   O17   S    
C40   H62   S    
Cr6   O26   S    
C86   H18   S    
C107  C111  A    
C14   C18   A    
C108  H36   S    
C131  H43   S    
C24   C28   A    
C38   H64   S    
C130  H42   S    
Cr10  O10   S    
C134  C138  S    
C87   C95   A    
C129  H41   S    
C76   C80   A    
Cr7   O7    S    
C90   O2    A    
Cr11  O15   S    
Cr12  O16   S    
C54   C61   A    
Cr7   O19   S    
C16   C32   A    
C8    F4    S    
C119  O51   A    
C29   C35   A    
C131  C135  S    
C54   C58   A    
C120  O52   A    
C30   C36   A    
C8    C140  S    
C39   H61   S    
C87   C115  A    
C96   H28   S    
C85   C113  A    
Cr9   O37   S    
C93   H25   S    
Cr9   O9    S    
C71   C72   A    
C20   C52   A    
C3    C10   S    
C65   C71   A    
Cr10  O38   S    
C36   C38   A    
C79   C83   A    
C130  C137  S    
C29   H49   S    
C57   C58   A    
C134  H2    S    
C6    F2    S    
C105  C109  A    
Cr11  O19   S    
C19   C51   A    
C98   H22   S    
Cr4   O24   S    
C21   H45   S    
C4    O24   A    
C62   H6    S    
C102  C106  A    
Cr3   O47   S    
C128  O44   A    
C136  H4    S    
Cr6   O18   S    
C69   C70   A    
C130  C134  S    
C76   C117  S    
C17   C41   A    
C44   H68   S    
Cr4   O4    S    
C70   H14   S    
C91   O39   A    
C60   C68   A    
C22   C26   A    
C63   C64   A    
C117  O49   A    
C67   H11   S    
C56   C60   A    
C7    C136  S    
C30   H50   S    
C123  O11   A    
C24   H48   S    
C27   H55   S    
C106  C110  A    
C77   C81   A    
C116  C128  S    
C65   H9    S    
C74   C94   A    
C4    O28   A    
C68   C70   A    
C22   H46   S    
C46   C138  S    
C34   C40   A    
C107  H35   S    
C1    O25   A    
C84   C112  A    
C127  O15   A    
C12   C28   A    
C4    C9    S    
C132  H44   S    
C43   H67   S    
C91   O3    A    
Cr7   O51   S    
C46   O34   A    
C52   C92   S    
C97   C101  A    
C97   H21   S    
C32   C34   A    
C41   H65   S    
C57   C65   A    
C74   C78   A    
