data_str_m2_o14_o16_f0_pcu.sym.147
_audit_creation_date              2013-03-05T15:50:33-0500
_audit_creation_method            fapswitch 2.2
_symmetry_space_group_name_H-M    P1
_symmetry_Int_Tables_number       1
_space_group_crystal_system       triclinic
_cell_length_a                    9.58302
_cell_length_b                    10.872159
_cell_length_c                    13.393183
_cell_angle_alpha                 92.113419
_cell_angle_beta                  72.547382
_cell_angle_gamma                 89.673477
_cell_volume                      1330.0621537

loop_
_atom_site_label
_atom_site_type_symbol
_atom_site_description
_atom_site_fract_x
_atom_site_fract_y
_atom_site_fract_z
_atom_type_partial_charge
O1    O     O_R   0.381190 0.680360 0.500010 -0.582409
O2    O     O_R   0.618760 0.680340 0.500000 -0.529422
C1    C     C_R   0.500379 0.737881 0.494655 0.870248
O3    O     O_R   0.323240 0.499990 0.650990 -0.591443
O4    O     O_R   0.560820 0.499960 0.650980 -0.584100
C2    C     C_R   0.421841 0.492540 0.699847 0.780400
Cu1   Cu    Cu3+1 0.359340 0.500010 0.500010 0.958716
Cu2   Cu    Cu3+1 0.640660 0.499990 0.499990 0.942401
O5    O     O_R   0.381240 0.319660 0.500000 -0.616415
O6    O     O_R   0.618810 0.319640 0.499990 -0.611112
O7    O     O_R   0.439180 0.500040 0.349020 -0.540249
O8    O     O_R   0.676760 0.500010 0.349010 -0.611638
C3    C     C_R   0.496502 0.263361 0.508204 0.785861
C4    C     C_R   0.578581 0.498872 0.299918 0.853691
C5    C     C_R   0.782049 0.377537 0.029773 -0.195469
H1    H     H_    0.826485 0.385799 0.176515 0.166856
H2    H     H_    0.808012 0.308482 0.832704 0.139064
H3    H     H_    0.882620 0.326706 0.991249 0.147196
C6    C     C_R   0.624347 0.482253 0.185635 -0.134752
C7    C     C_R   0.229631 0.510987 0.872147 -0.183732
C8    C     C_R   0.185457 0.510793 0.981022 -0.154371
C9    C     C_R   0.288261 0.491575 0.033681 -0.109930
C10   C     C_R   0.437097 0.471706 0.978018 0.124105
C11   C     C_R   0.475300 0.447036 0.868704 0.086286
C12   C     C_R   0.546834 0.465068 0.029015 -0.049094
C13   C     C_R   0.679607 0.400734 0.976901 0.127751
C14   C     C_R   0.707923 0.359180 0.872848 -0.215460
C15   C     C_R   0.608881 0.384338 0.818612 -0.200228
C16   C     C_R   0.531155 0.521302 0.129052 0.337761
C17   C     C_R   0.751505 0.413414 0.134821 -0.283896
C18   C     C_R   0.375103 0.480854 0.814513 -0.107778
H4    H     H_    0.149503 0.533869 0.833101 0.158164
H5    H     H_    0.250326 0.487711 0.117806 0.151727
H6    H     H_    0.071894 0.528496 0.024862 0.153630
H7    H     H_    0.634931 0.346854 0.739241 0.173500
C19   C     C_R   0.227956 0.889427 0.502002 -0.120675
H8    H     H_    0.223734 0.804111 0.459688 0.207750
C20   C     C_R   0.094863 0.952882 0.542222 -0.168352
H9    H     H_    0.994701 0.911365 0.537079 0.181618
C21   C     C_R   0.090554 0.068658 0.590199 -0.133779
H10   H     H_    0.986754 0.116083 0.625361 0.136560
C22   C     C_R   0.220634 0.125629 0.589023 -0.136617
H11   H     H_    0.212254 0.215328 0.628164 0.151441
C23   C     C_R   0.357641 0.066676 0.539639 0.094149
C24   C     C_R   0.360567 0.940575 0.510298 0.049314
C25   C     C_R   0.495850 0.873082 0.489644 -0.211295
C26   C     C_R   0.627389 0.937719 0.474237 0.423886
H12   H     H_    0.727351 0.111963 0.469455 0.182804
C27   C     C_R   0.624085 0.064655 0.486485 -0.296479
C28   C     C_R   0.491476 0.130010 0.516777 -0.171659
H13   H     H_    0.820942 0.640738 0.616831 0.156930
C29   C     C_R   0.914080 0.336149 0.361981 -0.173740
H14   H     H_    0.807111 0.330020 0.354964 0.198444
C30   C     C_R   0.014358 0.254913 0.294921 -0.228075
H15   H     H_    0.980087 0.192376 0.242288 0.151422
C31   C     C_R   0.158077 0.254172 0.294913 -0.196242
H16   H     H_    0.236378 0.191003 0.242256 0.165006
C32   C     C_R   0.202298 0.334609 0.361975 -0.111584
H17   H     H_    0.315259 0.326289 0.354569 0.189851
C33   C     C_R   0.103526 0.418777 0.432281 0.235495
C34   C     C_R   0.953898 0.419171 0.432235 0.192452
N1    N     N_R   0.852480 0.498790 0.499000 -0.206859
C35   C     C_R   0.898656 0.577319 0.564226 -0.036165
H18   H     H_    0.079571 0.640531 0.616871 0.139166
C36   C     C_R   0.046634 0.577241 0.564238 -0.083963
N2    N     N_R   0.148360 0.498710 0.498970 -0.191535
S1    S     S_3+6 0.431963 0.663230 0.170889 -0.016980
O9    O     O_2   0.519185 0.747741 0.219526 -0.312143
O10   O     O_2   0.405966 0.725971 0.079637 -0.300972
O11   O     O_3   0.271447 0.638248 0.261792 -0.545311
H19   H     H_    0.195936 0.655423 0.227470 0.343467
O12   O     O_3   0.761696 0.877627 0.445185 -0.580587
C37   C     C_3   0.814892 0.871603 0.334778 0.078215
H20   H     H_    0.836152 0.965528 0.303452 0.136960
H21   H     H_    0.736479 0.824104 0.300100 0.182211
C38   C     C_3   0.957530 0.798490 0.301036 -0.749967
H22   H     H_    0.939418 0.704274 0.331502 0.256965
H23   H     H_    0.999232 0.791737 0.214143 0.206238
H24   H     H_    0.040108 0.844927 0.331759 0.256780

loop_
_geom_bond_atom_site_label_1
_geom_bond_atom_site_label_2
_geom_bond_distance
_ccdc_geom_bond_type
C5    H3    1.084028 S    
C35   C36   1.418120 A    
C37   H20   1.114910 S    
C38   H24   1.111305 S    
Cu1   Cu2   2.695813 S    
C26   C27   1.382817 A    
C24   C25   1.433435 A    
C23   C24   1.409981 A    
Cu1   O7    1.935666 S    
C13   C14   1.394711 A    
C19   H8    1.076386 S    
C38   H23   1.110789 S    
C29   C34   1.415038 A    
C20   H9    1.082644 S    
O7    C4    1.299785 A    
H1    C17   1.081135 S    
C31   H16   1.083082 S    
O5    C3    1.294929 A    
C25   C26   1.410738 A    
C15   H7    1.079880 S    
C10   C11   1.413465 A    
O11   H19   0.986980 S    
C21   C22   1.391240 A    
C2    C18   1.475712 S    
C33   N2    1.383752 A    
C16   S1    1.788471 S    
C8    C9    1.391729 A    
C37   H21   1.114956 S    
C22   C23   1.417865 A    
O3    Cu1   1.946538 S    
C29   C30   1.387191 A    
C12   C16   1.417477 A    
C30   C31   1.377211 A    
S1    O9    1.502796 D    
H2    C14   1.084273 S    
H13   C35   1.081669 S    
C38   H22   1.111865 S    
O3    C2    1.304403 A    
C5    C13   1.398611 A    
C8    H6    1.082653 S    
C12   C13   1.420018 A    
C33   C34   1.434059 A    
S1    O10   1.504403 D    
N1    C35   1.367144 A    
Cu2   O8    1.946538 S    
C19   C24   1.422941 A    
H12   C27   1.083952 S    
O8    C4    1.299326 A    
C27   C28   1.394121 A    
C37   C38   1.514952 S    
C22   H11   1.080958 S    
C6    C16   1.406223 A    
C29   H14   1.059319 S    
C5    C17   1.388692 A    
C7    H4    1.083172 S    
C23   C28   1.415228 A    
Cu1   O5    1.970794 S    
C9    H5    1.077663 S    
C30   H15   1.083105 S    
C21   H10   1.082753 S    
O1    Cu1   1.973129 S    
C4    C6    1.464175 S    
O2    Cu2   1.970796 S    
C11   C15   1.412311 A    
O12   C37   1.411038 S    
O6    C3    1.302326 A    
O4    Cu2   1.935666 S    
C1    C25   1.474911 S    
S1    O11   1.681659 S    
H18   C36   1.081747 S    
C19   C20   1.394023 A    
O2    C1    1.314300 A    
C32   H17   1.060025 S    
C11   C18   1.420415 A    
Cu1   N2    2.026174 S    
C20   C21   1.386665 A    
O4    C2    1.300349 A    
C31   C32   1.387695 A    
C10   C12   1.418170 A    
C34   N1    1.380400 A    
C26   O12   1.380596 S    
C3    C28   1.458498 S    
C7    C8    1.391220 A    
Cu2   O6    1.973128 S    
C36   N2    1.366653 A    
C14   C15   1.388711 A    
C9    C10   1.408389 A    
O1    C1    1.289635 A    
C6    C17   1.400997 A    
C32   C33   1.418426 A    
Cu2   N1    2.025902 S    
C7    C18   1.406145 A    
