data_str_m9_o2_o17_f0_sra.sym.96
_audit_creation_date              2012-12-11T16:26:36-0500
_audit_creation_method            fapswitch 2.2
_symmetry_space_group_name_H-M    P1
_symmetry_Int_Tables_number       1
_space_group_crystal_system       triclinic
_cell_length_a                    6.936557
_cell_length_b                    17.462552
_cell_length_c                    19.524585
_cell_angle_alpha                 108.594336
_cell_angle_beta                  89.848378
_cell_angle_gamma                 90.719538
_cell_volume                      2241.37985982

loop_
_atom_site_label
_atom_site_type_symbol
_atom_type_description
_atom_site_fract_x
_atom_site_fract_y
_atom_site_fract_z
_atom_type_partial_charge
O1    O     O_R   0.494330 0.415720 0.413720 -0.543311
O2    O     O_R   0.819330 0.430070 0.560210 -0.546528
O3    O     O_R   0.994320 0.584280 0.586280 -0.537561
C1    C     C_R   0.650113 0.414140 0.581155 0.695990
O4    O     O_R   0.823730 0.406300 0.412670 -0.541848
O5    O     O_R   0.998760 0.560340 0.437690 -0.547155
C2    C     C_R   0.654473 0.383261 0.385202 0.682852
O6    O     O_R   0.489890 0.439660 0.562310 -0.548159
O7    O     O_3   0.662340 0.550560 0.508380 -0.357515
V1    V     V_3+5 0.935370 0.490620 0.498450 1.431492
O8    O     O_R   0.328750 0.569930 0.439790 -0.521745
C3    C     C_R   0.160780 0.582898 0.416378 0.790935
O9    O     O_R   0.324340 0.593700 0.587330 -0.518907
C4    C     C_R   0.156333 0.618555 0.613795 0.797863
V2    V     V_3+5 0.435940 0.509380 0.501550 1.473062
O10   O     O_3   0.159100 0.449440 0.491620 -0.380775
C5    C     C_R   0.263038 0.598374 0.749346 -0.147521
C6    C     C_R   0.314229 0.585809 0.813860 -0.118754
C7    C     C_R   0.303437 0.648664 0.878756 -0.118736
C8    C     C_R   0.240094 0.724371 0.879661 -0.136375
C9    C     C_R   0.187328 0.738938 0.814961 0.075080
C10   C     C_R   0.200531 0.674918 0.748282 0.055682
C11   C     C_R   0.115848 0.814940 0.816267 -0.156287
C12   C     C_R   0.058278 0.827078 0.750930 0.033511
C13   C     C_R   0.093745 0.766799 0.683298 -0.003127
C14   C     C_R   0.152501 0.688214 0.682260 -0.161828
C15   C     C_R   0.971245 0.900047 0.751699 -0.183866
C16   C     C_R   0.923960 0.914539 0.687990 -0.204908
C17   C     C_R   0.978210 0.860549 0.621494 0.107124
C18   C     C_R   0.074803 0.789144 0.619440 0.317852
H1    H     H_    0.273658 0.547404 0.700482 0.092568
H2    H     H_    0.362377 0.526923 0.813454 0.117683
H3    H     H_    0.342858 0.638579 0.928782 0.111655
H4    H     H_    0.230816 0.770892 0.931699 0.092582
H5    H     H_    0.936370 0.946652 0.801507 0.129840
H6    H     H_    0.852905 0.970351 0.690712 0.138159
C19   C     C_R   0.307615 0.632578 0.320444 -0.212334
C20   C     C_R   0.152941 0.632562 0.367251 -0.046301
C21   C     C_R   0.990942 0.680361 0.367073 -0.188214
C22   C     C_R   0.983672 0.728327 0.321459 0.067158
C23   C     C_R   0.137951 0.726886 0.273808 0.058089
C24   C     C_R   0.300054 0.678539 0.273104 0.096024
C25   C     C_R   0.824867 0.777784 0.322619 -0.202345
C26   C     C_R   0.817080 0.824233 0.276010 -0.157001
C27   C     C_R   0.967577 0.821855 0.227177 0.103280
C28   C     C_R   0.129794 0.773610 0.226566 0.078687
C29   C     C_R   0.283709 0.771858 0.178672 0.117258
C30   C     C_R   0.443401 0.723059 0.178061 -0.197301
C31   C     C_R   0.451397 0.676768 0.224780 -0.185386
C32   C     C_R   0.958873 0.866873 0.179053 -0.166454
C33   C     C_R   0.112393 0.865878 0.131424 -0.068663
C34   C     C_R   0.275009 0.818650 0.132080 -0.191806
H7    H     H_    0.432511 0.595678 0.319983 0.115111
H8    H     H_    0.871795 0.681304 0.403382 0.139778
H9    H     H_    0.705869 0.780162 0.359288 0.156327
H10   H     H_    0.692225 0.861461 0.277689 0.182952
H11   H     H_    0.833965 0.903760 0.179499 0.128735
H12   H     H_    0.393722 0.817366 0.095500 0.116216
H13   H     H_    0.562738 0.720900 0.141587 0.125871
H14   H     H_    0.576614 0.639779 0.223305 0.130392
C35   C     C_R   0.467346 0.184950 0.866406 -0.220098
C36   C     C_R   0.623163 0.135139 0.869437 -0.081644
C37   C     C_R   0.783020 0.131457 0.823985 -0.228906
C38   C     C_R   0.785999 0.175428 0.774964 0.091351
C39   C     C_R   0.629647 0.225630 0.772761 0.054257
C40   C     C_R   0.470365 0.230723 0.818995 0.088129
C41   C     C_R   0.942078 0.169822 0.727791 -0.198271
C42   C     C_R   0.945097 0.214711 0.679832 -0.182006
C43   C     C_R   0.792065 0.265986 0.678183 0.089986
C44   C     C_R   0.632641 0.270919 0.724326 0.053796
C45   C     C_R   0.476473 0.321275 0.722289 0.089202
C46   C     C_R   0.319615 0.326321 0.768986 -0.195000
C47   C     C_R   0.316574 0.281429 0.816905 -0.183798
C48   C     C_R   0.796129 0.312700 0.631507 -0.219395
C49   C     C_R   0.641174 0.363265 0.629191 -0.080412
C50   C     C_R   0.480580 0.366205 0.674093 -0.224608
H15   H     H_    0.343790 0.188595 0.901389 0.128364
H16   H     H_    0.903567 0.093276 0.825759 0.121290
H17   H     H_    0.062601 0.131111 0.728318 0.132355
H18   H     H_    0.068138 0.209840 0.644439 0.134391
H19   H     H_    0.919910 0.309370 0.596692 0.129184
H20   H     H_    0.360453 0.404718 0.672664 0.118578
H21   H     H_    0.198813 0.364834 0.768302 0.132660
H22   H     H_    0.193259 0.286095 0.852137 0.133088
H23   H     H_    0.388034 0.141370 0.429025 0.142421
C51   C     C_R   0.781922 0.401684 0.250105 -0.152398
C52   C     C_R   0.844043 0.412685 0.185936 -0.126047
C53   C     C_R   0.833171 0.349162 0.121388 -0.116445
C54   C     C_R   0.760075 0.274152 0.120503 -0.136476
C55   C     C_R   0.697272 0.260900 0.184897 0.070250
C56   C     C_R   0.708461 0.325995 0.251082 0.067710
C57   C     C_R   0.621184 0.184781 0.183917 -0.160042
C58   C     C_R   0.556970 0.173663 0.249205 0.009595
C59   C     C_R   0.567889 0.238787 0.315373 0.073647
C60   C     C_R   0.643549 0.314997 0.316324 -0.162882
C61   C     C_R   0.485017 0.097767 0.250218 -0.193155
C62   C     C_R   0.424210 0.086451 0.314491 0.438618
C63   C     C_R   0.434410 0.150175 0.379030 -0.158374
C64   C     C_R   0.505798 0.225418 0.379784 -0.208556
H24   H     H_    0.791187 0.453357 0.298655 0.101873
H25   H     H_    0.899961 0.470984 0.186288 0.113690
H26   H     H_    0.880655 0.358140 0.071605 0.112903
H27   H     H_    0.752348 0.227041 0.068730 0.100131
H28   H     H_    0.476600 0.046261 0.201496 0.138711
H29   H     H_    0.513163 0.272614 0.431518 0.121186
O11   O     O_R   0.775200 0.060470 0.937800 -0.545243
O12   O     O_R   0.441110 0.093720 0.087350 -0.537262
O13   O     O_R   0.266330 0.939630 0.062280 -0.540560
C65   C     C_R   0.610278 0.116620 0.114982 0.697126
O14   O     O_R   0.445750 0.069950 0.939820 -0.542854
O15   O     O_R   0.271000 0.915700 0.913700 -0.534724
C66   C     C_R   0.614857 0.085419 0.918472 0.702789
O16   O     O_R   0.770530 0.084400 0.086380 -0.534992
O17   O     O_3   0.602830 0.949510 0.991680 -0.369279
V3    V     V_3+5 0.329710 0.009370 0.001550 1.424203
O18   O     O_R   0.940990 0.906170 0.912570 -0.541754
C67   C     C_R   0.109016 0.883025 0.885270 0.694192
O19   O     O_R   0.936350 0.929940 0.060100 -0.544857
C68   C     C_R   0.104452 0.915029 0.081912 0.708583
V4    V     V_3+5 0.829160 0.990450 0.998310 1.416663
O20   O     O_3   0.105910 0.050480 0.008320 -0.368349
C69   C     C_3   0.937127 0.882122 0.553793 -0.314825
C70   C     C_3   0.084019 0.944462 0.544557 -0.330824
C71   C     C_3   0.049882 0.962940 0.474268 -0.654814
H30   H     H_    0.069774 0.907670 0.427125 0.261347
H31   H     H_    0.901775 0.985970 0.473104 0.225324
H32   H     H_    0.154914 0.009748 0.470082 0.237922
H33   H     H_    0.072560 0.001434 0.590650 0.187903
H34   H     H_    0.232530 0.921027 0.543925 0.238502
H35   H     H_    0.938128 0.827395 0.505268 0.214973
H36   H     H_    0.789283 0.907006 0.557141 0.169082
Cl1   Cl    Cl    0.336749 0.991513 0.314069 -0.719271
Cl2   Cl    Cl    0.217925 0.743909 0.542964 -0.726955

loop_
_geom_bond_atom_site_label_1
_geom_bond_atom_site_label_2
_ccdc_geom_bond_type
C42   H18   S    
C52   C53   A    
C58   C59   A    
V3    O20   S    
C23   C24   A    
C7    C8    A    
C12   C15   A    
C1    O6    A    
C62   C63   A    
C55   C56   A    
C70   C71   S    
O11   C66   A    
C27   C28   A    
V4    O20   S    
C17   C18   A    
C31   H14   S    
C27   C32   A    
O13   V3    S    
C16   C17   A    
C51   C56   A    
O5    C3    A    
C20   C21   A    
C57   C65   S    
C21   H8    S    
V2    O10   S    
O18   C67   A    
C6    C7    A    
C19   C24   A    
O19   C68   A    
C1    C49   S    
H23   C63   S    
C52   H25   S    
O8    V2    S    
C35   C40   A    
C22   C25   A    
C59   C60   A    
C35   H15   S    
C42   C43   A    
C70   H34   S    
C33   C68   S    
C23   C28   A    
C44   C45   A    
O1    V2    S    
C51   H24   S    
O7    V1    S    
C47   H22   S    
C65   O16   A    
C19   H7    S    
O9    C4    A    
C61   C62   A    
O12   C65   A    
O13   C68   A    
C43   C44   A    
C5    C6    A    
O19   V4    S    
C64   H29   S    
C48   C49   A    
C41   C42   A    
C38   C41   A    
C41   H17   S    
C12   C13   A    
C7    H3    S    
C50   H20   S    
C21   C22   A    
O4    C2    A    
C51   C52   A    
C15   H5    S    
C13   C14   A    
C40   C47   A    
O18   V4    S    
O2    C1    A    
C49   C50   A    
C11   C67   S    
C19   C20   A    
O16   V4    S    
C26   H10   S    
C55   C57   A    
C29   C30   A    
O9    V2    S    
C11   C12   A    
C18   Cl2   S    
C17   C69   S    
C8    C9    A    
C36   C37   A    
C32   C33   A    
C36   C66   S    
C43   C48   A    
C4    C14   S    
O12   V3    S    
O3    C4    A    
C34   H12   S    
C71   H32   S    
C25   H9    S    
C30   C31   A    
C63   C64   A    
O6    V2    S    
C9    C11   A    
C25   C26   A    
C5    H1    S    
C6    H2    S    
C48   H19   S    
O2    V1    S    
C69   H36   S    
C26   C27   A    
C30   H13   S    
C71   H31   S    
C13   C18   A    
C28   C29   A    
C22   C23   A    
O11   V4    S    
O1    C2    A    
C32   H11   S    
C62   Cl1   S    
C46   C47   A    
O5    V1    S    
C53   H26   S    
O8    C3    A    
O17   V3    S    
C29   C34   A    
C58   C61   A    
C2    C60   S    
C5    C10   A    
O15   C67   A    
C38   C39   A    
C61   H28   S    
O7    V2    S    
C8    H4    S    
C33   C34   A    
O3    V1    S    
V1    O10   S    
C54   H27   S    
C70   H33   S    
C45   C50   A    
C59   C64   A    
C57   C58   A    
C3    C20   S    
C35   C36   A    
O14   C66   A    
C46   H21   S    
C24   C31   A    
C56   C60   A    
C37   C38   A    
O4    V1    S    
C45   C46   A    
C53   C54   A    
C16   H6    S    
C39   C40   A    
C10   C14   A    
C15   C16   A    
C69   C70   S    
O15   V3    S    
C54   C55   A    
C9    C10   A    
O14   V3    S    
C69   H35   S    
O17   V4    S    
C39   C44   A    
C71   H30   S    
C37   H16   S    
