data_str_m12_o9_o22_f0_bcu.sym.24
_audit_creation_date              2012-12-11T17:45:25-0500
_audit_creation_method            fapswitch 2.2
_symmetry_space_group_name_H-M    P1
_symmetry_Int_Tables_number       1
_space_group_crystal_system       triclinic
_cell_length_a                    14.9782
_cell_length_b                    14.924002
_cell_length_c                    15.182997
_cell_angle_alpha                 110.223379
_cell_angle_beta                  108.697199
_cell_angle_gamma                 109.269938
_cell_volume                      2619.45950606

loop_
_atom_site_label
_atom_site_type_symbol
_atom_type_description
_atom_site_fract_x
_atom_site_fract_y
_atom_site_fract_z
_atom_type_partial_charge
C1    C     C_R   0.960913 0.234110 0.048196 0.517008
C2    C     C_R   0.705334 0.193935 0.794283 -0.125621
C3    C     C_R   0.777383 0.592281 0.025524 -0.141091
C4    C     C_R   0.314869 0.763426 0.223886 -0.136553
C5    C     C_R   0.945749 0.410843 0.686973 -0.129434
C6    C     C_R   0.675727 0.500170 0.949309 -0.000797
C7    C     C_R   0.966749 0.506350 0.681424 0.081853
C8    C     C_R   0.703988 0.130012 0.701524 0.066437
C9    C     C_R   0.065761 0.870439 0.074057 0.089513
C10   C     C_R   0.589252 0.316799 0.168923 -0.118515
C11   C     C_R   0.692780 0.389917 0.257748 -0.167075
C12   C     C_R   0.324080 0.796104 0.326023 0.056984
C13   C     C_R   0.760088 0.350761 0.297274 -0.047963
C14   C     C_R   0.722747 0.235866 0.245485 0.530013
C15   C     C_R   0.619105 0.164015 0.155284 -0.137054
C16   C     C_R   0.206168 0.409058 0.898645 0.470551
C17   C     C_R   0.552481 0.204031 0.117285 -0.213671
C18   C     C_R   0.867798 0.438236 0.492340 -0.219824
C19   C     C_R   0.963113 0.514203 0.589561 0.021505
C20   C     C_R   0.058755 0.582243 0.594463 -0.119916
C21   C     C_R   0.058455 0.564724 0.499054 0.408771
C22   C     C_R   0.959836 0.495769 0.402481 -0.075339
C23   C     C_R   0.298697 0.499848 0.927419 -0.059613
C24   C     C_R   0.864267 0.430088 0.398023 -0.022763
C25   C     C_R   0.166711 0.780779 0.734902 -0.164350
C26   C     C_R   0.257720 0.870206 0.831326 -0.127181
C27   C     C_R   0.340202 0.856097 0.888815 -0.107235
C28   C     C_R   0.006765 0.589848 0.304058 -0.064879
C29   C     C_R   0.331889 0.752595 0.850164 -0.127202
C30   C     C_R   0.240634 0.662164 0.754070 -0.052644
C31   C     C_R   0.157151 0.675948 0.696126 0.178360
C32   C     C_R   0.255705 0.057483 0.523503 -0.120195
C33   C     C_R   0.330424 0.025901 0.509764 -0.139543
C34   C     C_R   0.960041 0.496601 0.309162 0.099347
C35   C     C_R   0.339702 0.944726 0.532239 0.073814
C36   C     C_R   0.275409 0.897632 0.570688 -0.138904
C37   C     C_R   0.194329 0.922229 0.574863 -0.131744
C38   C     C_R   0.185446 0.003424 0.552980 -0.124459
C39   C     C_R   0.522014 0.981161 0.621946 -0.199526
C40   C     C_R   0.299446 0.590977 0.994463 -0.254041
C41   C     C_R   0.619243 0.015315 0.619286 0.049461
C42   C     C_R   0.620262 0.952885 0.525171 0.037183
C43   C     C_R   0.521380 0.872402 0.432098 -0.232986
C44   C     C_R   0.424018 0.861916 0.429694 0.079424
C45   C     C_R   0.686833 0.407968 0.933484 -0.126606
C46   C     C_R   0.425460 0.919121 0.526798 0.043548
C47   C     C_R   0.734070 0.014588 0.446690 -0.185323
C48   C     C_R   0.836922 0.064520 0.457473 -0.107752
C49   C     C_R   0.925892 0.075141 0.536749 -0.140083
C50   C     C_R   0.911578 0.033439 0.603522 -0.118770
C51   C     C_R   0.809305 0.984259 0.594001 -0.112992
C52   C     C_R   0.920423 0.406218 0.213143 -0.088699
C53   C     C_R   0.720621 0.978135 0.517939 0.083362
C54   C     C_3   0.472928 0.393347 0.833357 -0.468711
C55   C     C_3   0.368756 0.393350 0.827629 -0.330031
C56   C     C_R   0.028253 0.595062 0.783359 -0.113214
C57   C     C_3   0.567567 0.507817 0.037048 -0.393863
C58   C     C_3   0.570513 0.598613 0.924196 -0.384443
C59   C     C_3   0.573611 0.499926 0.934834 0.400326
C60   C     C_3   0.396488 0.499619 0.924600 0.386111
C61   C     C_3   0.464414 0.508035 0.031248 -0.417626
C62   C     C_3   0.465789 0.598573 0.918513 -0.411476
C63   C     C_R   0.155879 0.048688 0.791898 -0.238559
C64   C     C_R   0.220424 0.756587 0.312707 -0.085565
C65   C     C_R   0.118850 0.046694 0.864957 0.469335
C66   C     C_R   0.187763 0.125801 0.975300 -0.021655
C67   C     C_R   0.792787 0.197510 0.700746 -0.146470
C68   C     C_R   0.293075 0.205158 0.010710 -0.239528
C69   C     C_R   0.329326 0.205301 0.936683 -0.139814
C70   C     C_R   0.261061 0.127268 0.827689 -0.122991
C71   C     C_R   0.170132 0.040508 0.081748 -0.204750
C72   C     C_R   0.102539 0.988501 0.114622 0.069981
C73   C     C_R   0.056130 0.044640 0.163627 0.018489
C74   C     C_R   0.066083 0.139373 0.160857 -0.269339
C75   C     C_R   0.092850 0.159450 0.086778 0.096663
C76   C     C_R   0.065453 0.249347 0.970849 -0.214215
C77   C     C_R   0.155338 0.116127 0.054602 0.118893
C78   C     C_R   0.002377 0.803038 0.097899 -0.155987
C79   C     C_R   0.867221 0.948656 0.129978 -0.096500
C80   C     C_R   0.793703 0.899312 0.159008 -0.112964
C81   C     C_R   0.831421 0.895175 0.253513 -0.111075
C82   C     C_R   0.942974 0.946258 0.322287 -0.121225
C83   C     C_R   0.017047 0.001591 0.296718 -0.179880
C84   C     C_R   0.979476 0.998881 0.198167 0.107110
C85   C     C_R   0.041739 0.211095 0.036528 -0.056846
C86   C     C_R   0.094725 0.806593 0.009267 -0.089165
Cl1   Cl    Cl    0.183896 0.619445 0.500139 -0.724576
Cl2   Cl    Cl    0.987319 0.942362 0.816614 -0.729422
H1    H     H_    0.057238 0.680651 0.808215 0.130586
H2    H     H_    0.719570 0.477056 0.297579 0.135425
H3    H     H_    0.379327 0.780493 0.203954 0.094580
H4    H     H_    0.589949 0.076480 0.114916 0.129035
H5    H     H_    0.796080 0.385280 0.490211 0.145118
H6    H     H_    0.101980 0.792090 0.692085 0.133601
H7    H     H_    0.264349 0.950316 0.862383 0.137074
H8    H     H_    0.410475 0.925327 0.963553 0.100627
H9    H     H_    0.396605 0.743520 0.895540 0.100685
H10   H     H_    0.234595 0.581982 0.725300 0.114568
H11   H     H_    0.126538 0.026784 0.562214 0.105746
H12   H     H_    0.823589 0.178142 0.646514 0.134267
H13   H     H_    0.252761 0.124136 0.511805 0.109564
H14   H     H_    0.383441 0.066978 0.485150 0.114213
H15   H     H_    0.286781 0.840557 0.594997 0.194360
H16   H     H_    0.140009 0.879678 0.597002 0.118270
H17   H     H_    0.518757 0.022248 0.693997 0.122460
H18   H     H_    0.521504 0.825479 0.359531 0.124284
H19   H     H_    0.666926 0.011826 0.388390 0.130809
H20   H     H_    0.848111 0.097071 0.405900 0.171466
H21   H     H_    0.006015 0.116260 0.546850 0.134047
H22   H     H_    0.980480 0.043893 0.665987 0.155264
H23   H     H_    0.979061 0.824417 0.158086 0.125955
H24   H     H_    0.033868 0.673385 0.361857 0.103931
H25   H     H_    0.800726 0.958052 0.650446 0.166937
H26   H     H_    0.469601 0.318751 0.835454 0.152730
H27   H     H_    0.476049 0.387314 0.759383 0.172910
H28   H     H_    0.319388 0.386016 0.750298 0.172144
H29   H     H_    0.321556 0.319877 0.828900 0.216010
H30   H     H_    0.569681 0.437541 0.045709 0.153186
H31   H     H_    0.416503 0.438646 0.038396 0.159670
H32   H     H_    0.641084 0.677305 0.994185 0.146907
H33   H     H_    0.574236 0.593872 0.850790 0.168498
H34   H     H_    0.154501 0.834709 0.985806 0.094576
H35   H     H_    0.418148 0.592697 0.841570 0.162468
H36   H     H_    0.355848 0.676279 0.026944 0.121339
H37   H     H_    0.489305 0.677604 0.986603 0.145135
H38   H     H_    0.638922 0.584368 0.110594 0.156837
H39   H     H_    0.486869 0.585225 0.101426 0.163892
H40   H     H_    0.290550 0.127838 0.771541 0.140542
H41   H     H_    0.103430 0.987586 0.707694 0.134608
H42   H     H_    0.347331 0.264921 0.095566 0.139994
H43   H     H_    0.410823 0.264674 0.963186 0.116724
H44   H     H_    0.217615 0.007943 0.056089 0.114868
H45   H     H_    0.658466 0.166233 0.830002 0.100068
H46   H     H_    0.033982 0.184250 0.201113 0.180938
H47   H     H_    0.869193 0.321890 0.187179 0.178833
H48   H     H_    0.836632 0.945389 0.053359 0.117287
H49   H     H_    0.707485 0.862517 0.107258 0.109152
H50   H     H_    0.774276 0.853261 0.273965 0.120300
H51   H     H_    0.971600 0.941885 0.394745 0.121589
H52   H     H_    0.102956 0.039867 0.349165 0.120388
H53   H     H_    0.195870 0.759929 0.371984 0.142249
H54   H     H_    0.125490 0.250652 0.946858 0.161694
H55   H     H_    0.624753 0.322481 0.884571 0.096430
H56   H     H_    0.797748 0.677413 0.062391 0.109449
H57   H     H_    0.875028 0.106572 0.048149 0.317794
H58   H     H_    0.857949 0.249464 0.337782 0.318299
H59   H     H_    0.081122 0.266053 0.793108 0.314759
H60   H     H_    0.903646 0.327222 0.621065 0.112249
H61   H     H_    0.472086 0.147243 0.048279 0.143384
H62   H     H_    0.537335 0.348200 0.141856 0.112621
N1    N     N_R   0.947080 0.293830 0.002870 -0.068830
N2    N     N_R   0.153670 0.443180 0.946090 -0.094042
N3    N     N_R   0.002360 0.556820 0.208890 -0.053317
N4    N     N_R   0.210070 0.556820 0.002870 -0.049883
N5    N     N_R   0.945960 0.443180 0.152110 -0.052338
N6    N     N_R   0.151710 0.706170 0.208890 -0.051727
N7    N     N_R   0.004320 0.293830 0.946090 -0.076560
N8    N     N_R   0.789930 0.443180 0.997130 -0.040225
N9    N     N_R   0.054040 0.556820 0.847890 -0.045868
N10   N     N_R   0.848290 0.293830 0.791110 -0.044956
N11   N     N_R   0.995680 0.706170 0.053910 -0.042162
N12   N     N_R   0.052920 0.706170 0.997130 -0.045801
N13   N     N_R   0.791050 0.293830 0.847890 -0.041759
N14   N     N_R   0.846330 0.556820 0.053910 -0.042925
N15   N     N_R   0.997640 0.443180 0.791110 -0.045808
N16   N     N_R   0.208950 0.706170 0.152110 -0.039522
Ni1   Ni    Ni4+2 0.869690 0.369690 0.000000 0.243723
Ni2   Ni    Ni4+2 0.130310 0.630310 0.000000 0.210980
Ni3   Ni    Ni4+2 0.000970 0.369690 0.869780 0.213868
Ni4   Ni    Ni4+2 0.999030 0.630310 0.130220 0.210879
O1    O     O_3   0.885943 0.181781 0.072210 -0.794927
O2    O     O_3   0.783989 0.190455 0.279018 -0.778842
O3    O     O_3   0.156646 0.307288 0.808776 -0.807160

loop_
_geom_bond_atom_site_label_1
_geom_bond_atom_site_label_2
_ccdc_geom_bond_type
C16   O3    S    
C25   C31   A    
C66   C68   A    
H57   O1    S    
C58   C62   S    
C6    C45   A    
H58   O2    S    
C27   C29   A    
C41   C42   A    
N14   Ni4   S    
C35   C36   A    
C9    C72   S    
C3    C6    A    
N4    Ni2   S    
C63   C65   A    
C21   Cl1   S    
N11   N12   A    
C39   C41   A    
C48   H20   S    
C28   H24   S    
C52   N5    A    
C79   H48   S    
C26   C27   A    
C37   C38   A    
C36   H15   S    
C18   C24   A    
N1    N7    A    
C36   C37   A    
C56   N9    A    
C32   C38   A    
C42   C53   S    
C79   C84   A    
C12   C64   A    
C57   C59   S    
C61   H31   S    
C64   H53   S    
C10   C17   A    
C80   H49   S    
C54   H26   S    
C50   H22   S    
N9    Ni2   S    
C60   C62   S    
C18   C19   A    
C73   C74   A    
C83   H52   S    
C13   C14   A    
N7    Ni3   S    
C15   H4    S    
C75   C85   S    
C83   C84   A    
N5    Ni1   S    
C68   C69   A    
N3    Ni4   S    
C86   H34   S    
N10   Ni3   S    
C67   N10   A    
C86   N12   A    
C5    N15   A    
C4    C12   A    
C29   C30   A    
C73   C84   S    
N8    N14   A    
C47   C53   A    
C4    H3    S    
C71   H44   S    
C28   C34   A    
C25   H6    S    
C5    H60   S    
C55   C60   S    
N16   Ni2   S    
C40   N4    A    
C27   H8    S    
C23   C60   S    
C7    C56   A    
C40   H36   S    
C62   H35   S    
C18   H5    S    
C44   C46   A    
N8    Ni1   S    
C81   C82   A    
C54   C59   S    
N15   Ni3   S    
C81   H50   S    
C22   C34   S    
C17   H61   S    
C76   N7    A    
C2    H45   S    
C74   C75   A    
C3    H56   S    
C33   H14   S    
N10   N13   A    
C8    C41   S    
C72   C73   A    
C16   N2    A    
C57   H38   S    
C5    C7    A    
C80   C81   A    
C25   C26   A    
C1    O1    S    
N9    N15   A    
C13   C24   S    
C60   C61   S    
C51   C53   A    
C43   H18   S    
N13   Ni1   S    
C43   C44   A    
C82   H51   S    
C9    C86   A    
C37   H16   S    
C47   C48   A    
C63   C70   A    
N6    N16   A    
C69   H43   S    
C54   H27   S    
C58   H32   S    
C50   C51   A    
C61   H39   S    
C51   H25   S    
C68   H42   S    
C75   C77   A    
C78   H23   S    
C3    N14   A    
C8    C67   A    
C39   C46   A    
N12   Ni2   S    
N11   Ni4   S    
C67   H12   S    
C14   O2    S    
C48   C49   A    
N2    N4    A    
C49   C50   A    
C16   C23   A    
C7    C19   S    
C28   N3    A    
C22   C24   A    
C1    C85   A    
N3    N5    A    
C42   C43   A    
C71   C77   A    
C65   Cl2   S    
C49   H21   S    
C55   H29   S    
C70   H40   S    
C26   H7    S    
C15   C17   A    
C66   C77   S    
C64   N6    A    
C54   C55   S    
C56   H1    S    
C58   H33   S    
C14   C15   A    
C34   C52   A    
C6    C59   S    
C2    C8    A    
C45   N8    A    
C39   H17   S    
C38   H11   S    
C2    N13   A    
C62   H37   S    
H59   O3    S    
C57   C61   S    
C30   H10   S    
C47   H19   S    
C29   H9    S    
C32   C33   A    
C19   C20   A    
C58   C59   S    
C71   C72   A    
C12   C44   S    
C10   H62   S    
N2    Ni3   S    
C11   C13   A    
C11   H2    S    
C30   C31   A    
N1    Ni1   S    
C74   H46   S    
N6    Ni4   S    
C33   C35   A    
C4    N16   A    
C1    N1    A    
C9    C78   A    
C63   H41   S    
C69   C70   A    
C10   C11   A    
C79   C80   A    
C20   C21   A    
C78   N11   A    
C65   C66   A    
C55   H28   S    
C45   H55   S    
C52   H47   S    
C32   H13   S    
C82   C83   A    
C21   C22   A    
C35   C46   S    
C76   C85   A    
C23   C40   A    
C57   H30   S    
C20   C31   S    
C76   H54   S    
