data_str_m3_o4_o11_f0_pcu.sym.27
_audit_creation_date              2012-12-10T20:26:29-0500
_audit_creation_method            fapswitch 2.2
_symmetry_space_group_name_H-M    P1
_symmetry_Int_Tables_number       1
_space_group_crystal_system       triclinic
_cell_length_a                    10.774811
_cell_length_b                    10.775961
_cell_length_c                    9.933302
_cell_angle_alpha                 89.509492
_cell_angle_beta                  83.769109
_cell_angle_gamma                 91.844799
_cell_volume                      1145.8533159

loop_
_atom_site_label
_atom_site_type_symbol
_atom_type_description
_atom_site_fract_x
_atom_site_fract_y
_atom_site_fract_z
_atom_type_partial_charge
C1    C     C_R   0.498438 0.260265 0.500314 0.879494
C2    C     C_R   0.599663 0.548921 0.056958 0.165375
C3    C     C_R   0.598999 0.545421 0.914158 -0.201840
C4    C     C_R   0.261468 0.497958 0.508664 0.887756
C5    C     C_R   0.397177 0.458219 0.942043 0.172815
C6    C     C_3   0.341666 0.328935 0.949056 -0.544365
C7    C     C_3   0.340096 0.331733 0.101129 -0.499602
C8    C     C_R   0.500851 0.739688 0.499217 0.860353
C9    C     C_R   0.737307 0.503012 0.492311 0.909442
C10   C     C_2   0.932255 0.406407 0.456882 -0.158124
C11   C     C_2   0.869400 0.510108 0.470179 -0.345132
C12   C     C_R   0.503716 0.128500 0.497007 -0.120355
C13   C     C_2   0.067126 0.414687 0.450684 -0.199087
C14   C     C_2   0.126980 0.485011 0.536137 -0.047061
C15   C     C_R   0.559562 0.064859 0.595009 0.069310
C16   C     C_3   0.642762 0.153285 0.808912 -0.344033
C17   C     C_3   0.774718 0.160279 0.731949 -0.325550
C18   C     C_3   0.852565 0.266514 0.782142 -0.914457
C19   C     C_3   0.717038 0.604905 0.106157 -0.360843
C20   C     C_3   0.699209 0.732554 0.170374 -0.773365
C21   C     C_3   0.064712 0.542517 0.667698 -0.409518
C22   C     C_3   0.104707 0.484732 0.797793 -0.299074
C23   C     C_R   0.465268 0.063753 0.385861 -0.219128
C24   C     C_3   0.017563 0.513594 0.924138 -0.974664
C25   C     C_3   0.666881 0.869379 0.803027 -0.326465
C26   C     C_3   0.775050 0.835126 0.696497 -0.329713
C27   C     C_3   0.893383 0.810952 0.761848 -0.962589
C28   C     C_R   0.467611 0.935314 0.384646 -0.224201
C29   C     C_R   0.508660 0.871766 0.494563 -0.118119
C30   C     C_R   0.563318 0.938403 0.593389 0.058358
C31   C     C_3   0.553489 0.926955 0.745047 -0.116957
C32   C     C_3   0.544383 0.069482 0.746243 -0.141072
C33   C     C_R   0.397234 0.458689 0.084177 0.229166
H1    H     H_    0.885189 0.316659 0.447711 0.145320
H2    H     H_    0.430646 0.886198 0.302215 0.162846
H3    H     H_    0.463568 0.880275 0.786642 0.140212
H4    H     H_    0.447715 0.094461 0.783649 0.125279
H5    H     H_    0.808450 0.356293 0.766245 0.286477
H6    H     H_    0.862981 0.253472 0.891358 0.262210
H7    H     H_    0.946108 0.267883 0.723503 0.263120
H8    H     H_    0.824498 0.074736 0.748214 0.236855
H9    H     H_    0.770881 0.174707 0.621769 0.217685
H10   H     H_    0.607706 0.248868 0.812512 0.233998
H11   H     H_    0.647056 0.125706 0.916218 0.174235
H12   H     H_    0.679556 0.578947 0.848135 0.165703
H13   H     H_    0.768930 0.801156 0.120191 0.212441
H14   H     H_    0.715323 0.728517 0.278630 0.256565
H15   H     H_    0.605214 0.768047 0.159133 0.253266
H16   H     H_    0.761380 0.538470 0.169001 0.231673
H17   H     H_    0.789345 0.620217 0.019216 0.163911
H18   H     H_    0.020458 0.614849 0.943633 0.269917
H19   H     H_    0.920768 0.481605 0.912587 0.265500
H20   H     H_    0.048390 0.464798 0.013044 0.262591
H21   H     H_    0.108545 0.382818 0.786098 0.219571
H22   H     H_    0.197387 0.523065 0.817114 0.254306
H23   H     H_    0.246689 0.320939 0.917739 0.200271
H24   H     H_    0.091387 0.642638 0.665378 0.182423
H25   H     H_    0.962042 0.534456 0.678292 0.242102
H26   H     H_    0.914448 0.886371 0.832216 0.264558
H27   H     H_    0.882605 0.721461 0.817935 0.270307
H28   H     H_    0.972815 0.807700 0.681418 0.250410
H29   H     H_    0.748009 0.750893 0.641524 0.224044
H30   H     H_    0.796949 0.910515 0.620036 0.213613
H31   H     H_    0.700919 0.928861 0.882424 0.198522
H32   H     H_    0.632198 0.783806 0.858356 0.194310
H33   H     H_    0.406271 0.260955 0.901913 0.204466
H34   H     H_    0.244335 0.331614 0.155261 0.194379
H35   H     H_    0.403682 0.264444 0.140291 0.206065
H36   H     H_    0.915893 0.601275 0.468879 0.141389
H37   H     H_    0.119216 0.362569 0.371594 0.138493
H38   H     H_    0.427275 0.111163 0.303969 0.155236
N1    N     N_R   0.499170 0.499140 0.142800 -0.118343
N2    N     N_R   0.499170 0.499180 0.857150 -0.121690
O1    O     O_R   0.500020 0.316790 0.614690 -0.620497
O2    O     O_R   0.500000 0.316760 0.385350 -0.625513
O3    O     O_R   0.319080 0.500020 0.614640 -0.625236
O4    O     O_R   0.319070 0.499980 0.385300 -0.618882
O5    O     O_R   0.500000 0.683240 0.614650 -0.621177
O6    O     O_R   0.499980 0.683210 0.385310 -0.617632
O7    O     O_R   0.680930 0.500020 0.614700 -0.629115
O8    O     O_R   0.680920 0.499980 0.385360 -0.615055
Zn1   Zn    Zn3+2 0.500010 0.500020 0.653130 0.916757
Zn2   Zn    Zn3+2 0.499990 0.499980 0.346870 0.935356

loop_
_geom_bond_atom_site_label_1
_geom_bond_atom_site_label_2
_ccdc_geom_bond_type
C24   H19   S    
C25   C31   S    
C19   C20   S    
C18   H6    S    
C15   C32   S    
C22   H21   S    
C12   C23   A    
C26   C27   S    
C8    C29   S    
C14   C21   S    
C28   C29   A    
C27   H27   S    
C30   C31   S    
C13   H37   S    
O4    Zn2   S    
C19   H16   S    
C17   H9    S    
C18   H7    S    
C27   H28   S    
C33   N1    A    
O8    Zn2   S    
C7    H35   S    
C28   H2    S    
C16   C17   S    
C5    C33   A    
C8    O6    A    
C16   H11   S    
C24   H18   S    
C13   C14   D    
C8    O5    A    
C7    C33   S    
C1    C12   S    
O1    Zn1   S    
C2    N1    A    
C25   C26   S    
C6    C7    S    
C1    O2    A    
C23   H38   S    
C25   H32   S    
O7    Zn1   S    
O3    Zn1   S    
C4    O4    A    
C24   H20   S    
C18   H5    S    
C3    H12   S    
C25   H31   S    
C26   H30   S    
C21   H24   S    
C29   C30   A    
O5    Zn1   S    
C31   C32   S    
C12   C15   A    
C17   C18   S    
C10   H1    S    
C32   H4    S    
C9    C11   S    
C16   H10   S    
C20   H15   S    
C22   C24   S    
C23   C28   A    
C1    O1    A    
N2    Zn1   S    
C15   C30   A    
C2    C19   S    
C5    N2    A    
C6    H23   S    
C10   C13   S    
C11   H36   S    
C22   H22   S    
C16   C32   S    
C2    C3    A    
C26   H29   S    
C21   H25   S    
C27   H26   S    
O6    Zn2   S    
C19   H17   S    
O2    Zn2   S    
C5    C6    S    
C4    C14   S    
C3    N2    A    
C17   H8    S    
C4    O3    A    
N1    Zn2   S    
C10   C11   D    
C7    H34   S    
C6    H33   S    
C31   H3    S    
C21   C22   S    
C9    O7    A    
C20   H13   S    
C20   H14   S    
C9    O8    A    
