data_str_m2_o10_o17_f0_pcu.sym.85
_audit_creation_date              2012-12-10T16:44:45-0500
_audit_creation_method            fapswitch 2.2
_symmetry_space_group_name_H-M    P1
_symmetry_Int_Tables_number       1
_space_group_crystal_system       triclinic
_cell_length_a                    14.965237
_cell_length_b                    8.715138
_cell_length_c                    7.505282
_cell_angle_alpha                 102.916988
_cell_angle_beta                  94.722909
_cell_angle_gamma                 93.500308
_cell_volume                      947.673188739

loop_
_atom_site_label
_atom_site_type_symbol
_atom_type_description
_atom_site_fract_x
_atom_site_fract_y
_atom_site_fract_z
_atom_type_partial_charge
C1    C     C_R   0.494456 0.200189 0.454097 0.825482
C2    C     C_R   0.180861 0.360562 0.456789 -0.298860
C3    C     C_R   0.766552 0.497009 0.494233 -0.075445
C4    C     C_R   0.233447 0.502991 0.505767 -0.075446
C5    C     C_R   0.804771 0.352334 0.451850 0.340549
C6    C     C_R   0.195229 0.647666 0.548148 0.340550
C7    C     C_R   0.899245 0.350597 0.445561 -0.034330
C8    C     C_R   0.100755 0.649403 0.554438 -0.034330
C9    C     C_R   0.952830 0.497696 0.498640 0.022873
C10   C     C_R   0.047170 0.502304 0.501359 0.022873
C11   C     C_R   0.912069 0.640887 0.548867 0.122977
C12   C     C_R   0.505544 0.799811 0.545903 0.825483
C13   C     C_R   0.087931 0.359113 0.451134 0.122976
C14   C     C_R   0.942295 0.209633 0.386002 -0.045675
C15   C     C_R   0.057705 0.790367 0.613998 -0.045677
C16   C     C_1   0.894165 0.057568 0.306193 0.270964
C17   C     C_1   0.105835 0.942433 0.693811 0.270964
C18   C     C_1   0.411050 0.346513 0.927975 0.589431
C19   C     C_1   0.588950 0.653487 0.072025 0.589432
C20   C     C_R   0.035733 0.215559 0.393091 -0.208826
C21   C     C_R   0.964267 0.784440 0.606911 -0.208825
C22   C     C_2   0.481566 0.032021 0.433205 0.204654
C23   C     C_2   0.518435 0.967979 0.566795 0.204657
C24   C     C_R   0.329386 0.499942 0.501576 0.876510
C25   C     C_R   0.670613 0.500058 0.498424 0.876510
C26   C     C_R   0.819139 0.639437 0.543212 -0.298860
Cu1   Cu    Cu3+1 0.510010 0.517380 0.684380 1.010630
Cu2   Cu    Cu3+1 0.489990 0.482620 0.315620 1.010630
H1    H     H_    0.787238 0.749252 0.579818 0.153176
H2    H     H_    0.212762 0.250747 0.420184 0.153175
H3    H     H_    0.068158 0.107074 0.349679 0.146952
H4    H     H_    0.931843 0.892925 0.650325 0.146952
H5    H     H_    0.773359 0.154802 0.510970 0.326296
H6    H     H_    0.226639 0.845196 0.489021 0.326292
H7    H     H_    0.400021 0.009241 0.209201 0.336375
H8    H     H_    0.599978 0.990760 0.790803 0.336374
N1    N     N_2   0.474890 0.456420 0.038520 -0.211942
N2    N     N_2   0.525110 0.543580 0.961480 -0.211942
N3    N     N_1   0.856082 0.935525 0.241955 -0.251134
N4    N     N_1   0.143919 0.064477 0.758053 -0.251132
N5    N     N_1   0.357368 0.254043 0.837761 -0.319860
N6    N     N_1   0.642632 0.745957 0.162239 -0.319861
O1    O     O_R   0.506510 0.286130 0.619770 -0.550287
O2    O     O_3   0.251581 0.783551 0.574917 -0.714450
O3    O     O_3   0.427246 0.940283 0.283661 -0.725971
O4    O     O_3   0.572755 0.059717 0.716339 -0.725970
O5    O     O_R   0.493490 0.713870 0.380230 -0.550287
O6    O     O_R   0.489600 0.256770 0.308360 -0.607178
O7    O     O_R   0.510400 0.743230 0.691640 -0.607179
O8    O     O_R   0.378710 0.514640 0.655720 -0.587720
O9    O     O_R   0.621290 0.485360 0.344280 -0.587719
O10   O     O_R   0.361800 0.485290 0.344300 -0.595189
O11   O     O_R   0.638200 0.514710 0.655700 -0.595189
O12   O     O_3   0.748418 0.216449 0.425078 -0.714454

loop_
_geom_bond_atom_site_label_1
_geom_bond_atom_site_label_2
_ccdc_geom_bond_type
C24   O10   A    
C2    C4    A    
Cu1   O11   S    
C1    O6    A    
H8    O4    S    
N1    N2    D    
C19   N2    S    
Cu1   O1    S    
C9    C11   A    
C9    C10   A    
C11   C26   A    
C19   N6    T    
C15   C21   A    
C2    H2    S    
Cu1   Cu2   S    
C25   O9    A    
C12   O7    A    
C1    C22   S    
Cu2   O5    S    
C23   O4    S    
C6    O2    S    
Cu2   O10   S    
C12   C23   S    
Cu2   N1    S    
C26   H1    S    
C12   O5    A    
C8    C10   A    
Cu2   O9    S    
C18   N1    S    
C25   O11   A    
C10   C13   A    
C8    C15   A    
C5    C7    A    
C3    C26   A    
C24   O8    A    
C4    C24   S    
C21   H4    S    
C14   C16   S    
C16   N3    T    
C11   C21   A    
H7    O3    S    
C14   C20   A    
C5    O12   S    
C3    C25   S    
C22   O3    S    
H6    O2    S    
Cu1   O8    S    
C4    C6    A    
C18   N5    T    
H5    O12   S    
C7    C9    A    
C2    C13   A    
C22   C23   D    
Cu2   O6    S    
C6    C8    A    
Cu1   N2    S    
C13   C20   A    
C15   C17   S    
C17   N4    T    
C1    O1    A    
C7    C14   A    
Cu1   O7    S    
C3    C5    A    
C20   H3    S    
