data_str_m9_o18_o19_f0_sra.sym.76
_audit_creation_date              2012-12-11T15:27:42-0500
_audit_creation_method            fapswitch 2.2
_symmetry_space_group_name_H-M    P1
_symmetry_Int_Tables_number       1
_space_group_crystal_system       triclinic
_cell_length_a                    23.206574
_cell_length_b                    7.34731
_cell_length_c                    14.985082
_cell_angle_alpha                 89.999853
_cell_angle_beta                  108.146805
_cell_angle_gamma                 90.0
_cell_volume                      2427.96100897

loop_
_atom_site_label
_atom_site_type_symbol
_atom_type_description
_atom_site_fract_x
_atom_site_fract_y
_atom_site_fract_z
_atom_type_partial_charge
O1    O     O_R   0.711000 0.648610 0.341170 -0.534127
O2    O     O_R   0.289000 0.351390 0.658830 -0.533635
O3    O     O_R   0.789000 0.148610 0.158830 -0.534129
O4    O     O_R   0.211000 0.851390 0.841170 -0.533635
O5    O     O_R   0.829650 0.322030 0.336650 -0.535118
O6    O     O_R   0.170350 0.677970 0.663350 -0.539966
O7    O     O_R   0.670350 0.822030 0.163350 -0.535119
O8    O     O_R   0.329650 0.177970 0.836650 -0.539965
C1    C     C_R   0.854146 0.485742 0.356780 0.717701
C2    C     C_R   0.145854 0.514289 0.643221 0.717990
C3    C     C_R   0.645854 0.985742 0.143220 0.717701
C4    C     C_R   0.354146 0.014289 0.856779 0.717995
O9    O     O_R   0.713950 0.319280 0.352070 -0.537335
O10   O     O_R   0.286050 0.680720 0.647930 -0.537984
O11   O     O_R   0.786050 0.819280 0.147930 -0.537335
O12   O     O_R   0.213950 0.180720 0.852070 -0.537986
O13   O     O_R   0.672470 0.142870 0.174360 -0.534296
O14   O     O_R   0.327530 0.857130 0.825640 -0.530555
O15   O     O_R   0.827530 0.642870 0.325640 -0.534295
O16   O     O_R   0.172470 0.357130 0.674360 -0.530554
C5    C     C_R   0.701639 0.487441 0.375908 0.703684
C6    C     C_R   0.298276 0.512772 0.624003 0.704109
C7    C     C_R   0.798362 0.987441 0.124092 0.703685
C8    C     C_R   0.201724 0.012772 0.875997 0.704107
O17   O     O_3   0.736530 0.478650 0.191680 -0.378694
O18   O     O_3   0.263470 0.521350 0.808320 -0.378239
O19   O     O_3   0.763470 0.978650 0.308320 -0.378689
O20   O     O_3   0.236530 0.021350 0.691680 -0.378237
V1    V     V_3+5 0.752500 0.206170 0.260820 1.407488
V2    V     V_3+5 0.247500 0.793830 0.739180 1.406524
V3    V     V_3+5 0.747500 0.706170 0.239180 1.407488
V4    V     V_3+5 0.252500 0.293830 0.760820 1.406519
C9    C     C_R   0.827663 0.997225 0.050963 -0.069628
C10   C     C_R   0.172436 0.007774 0.949214 -0.069467
C11   C     C_R   0.672337 0.497225 0.449037 -0.069628
C12   C     C_R   0.327563 0.507775 0.550785 -0.069468
C13   C     C_R   0.820554 0.021135 0.885828 0.425164
C14   C     C_R   0.179424 0.029028 0.114423 0.425703
C15   C     C_R   0.679445 0.521136 0.614172 0.425161
C16   C     C_R   0.320574 0.529033 0.385576 0.425713
C17   C     C_R   0.792976 0.002120 0.956980 -0.297051
C18   C     C_R   0.207117 0.014459 0.043164 -0.297292
C19   C     C_R   0.707024 0.502122 0.543021 -0.297047
C20   C     C_R   0.292882 0.514466 0.456835 -0.297289
C21   C     C_R   0.890436 0.005632 0.076497 -0.192249
C22   C     C_R   0.109628 0.009556 0.923776 -0.192716
C23   C     C_R   0.609564 0.505626 0.423503 -0.192248
C24   C     C_R   0.390371 0.509550 0.576223 -0.192718
C25   C     C_R   0.920673 0.025914 0.008624 -0.004163
C26   C     C_R   0.079267 0.028054 0.991585 -0.004160
C27   C     C_R   0.579327 0.525908 0.491375 -0.004163
C28   C     C_R   0.420732 0.528047 0.508413 -0.004161
C29   C     C_R   0.885161 0.030851 0.911758 -0.032981
C30   C     C_R   0.114755 0.035348 0.088436 -0.032817
C31   C     C_R   0.614838 0.530849 0.588241 -0.032980
C32   C     C_R   0.385243 0.535345 0.411562 -0.032812
C33   C     C_R   0.985341 0.037135 0.035049 0.034193
C34   C     C_R   0.014552 0.036979 0.965087 0.034321
C35   C     C_R   0.514658 0.537125 0.464950 0.034192
C36   C     C_R   0.485447 0.536970 0.534911 0.034320
C37   C     C_R   0.978344 0.055636 0.870641 -0.298568
C38   C     C_R   0.021452 0.058069 0.129388 -0.298219
C39   C     C_R   0.521654 0.555629 0.629357 -0.298555
C40   C     C_R   0.478548 0.558056 0.370610 -0.298208
C41   C     C_R   0.914871 0.048070 0.842835 0.410719
C42   C     C_R   0.084960 0.052597 0.157263 0.410496
C43   C     C_R   0.585128 0.548070 0.657164 0.410714
C44   C     C_R   0.415039 0.552591 0.342736 0.410488
H1    H     H_    0.085858 0.994441 0.849894 0.105976
H2    H     H_    0.914370 0.990857 0.150357 0.105582
H3    H     H_    0.414141 0.494431 0.650104 0.105977
H4    H     H_    0.585630 0.490849 0.349643 0.105581
H5    H     H_    0.255835 0.006773 0.059640 0.106431
H6    H     H_    0.744367 0.989006 0.940236 0.106884
H7    H     H_    0.244163 0.506787 0.440360 0.106420
H8    H     H_    0.755633 0.489010 0.559766 0.106882
H9    H     H_    0.998193 0.087861 0.816597 0.131196
H10   H     H_    0.001406 0.090647 0.183177 0.131293
H11   H     H_    0.501806 0.587851 0.683401 0.131195
H12   H     H_    0.498593 0.590628 0.316821 0.131288
C45   C     C_1   0.416683 0.007265 0.918798 -0.199761
C46   C     C_1   0.583321 0.992978 0.081200 -0.200490
C47   C     C_1   0.083317 0.507266 0.581202 -0.199770
C48   C     C_1   0.916679 0.492979 0.418800 -0.200508
C49   C     C_1   0.469125 0.002717 0.970007 -0.012955
C50   C     C_1   0.530881 0.997738 0.029993 -0.011475
C51   C     C_1   0.030875 0.502719 0.529994 -0.012935
C52   C     C_1   0.969119 0.497739 0.470008 -0.011461
O21   O     O_3   0.881201 0.085736 0.750299 -0.555319
C53   C     C_3   0.897791 0.977912 0.683861 0.092102
H13   H     H_    0.857415 0.896769 0.644894 0.145316
H14   H     H_    0.935228 0.879375 0.714688 0.101324
C54   C     C_3   0.914618 0.102052 0.613834 -0.316456
H15   H     H_    0.876287 0.196039 0.581120 0.201768
H16   H     H_    0.954894 0.185242 0.651192 0.190692
C55   C     C_3   0.928693 0.991918 0.536752 -0.814869
H17   H     H_    0.968020 0.900566 0.567583 0.231359
H18   H     H_    0.939964 0.085659 0.486513 0.240218
H19   H     H_    0.888755 0.908997 0.497749 0.235816
O22   O     O_3   0.118464 0.092916 0.249556 -0.555116
C56   C     C_3   0.102236 0.985980 0.316649 0.092764
H20   H     H_    0.142915 0.906693 0.356246 0.144900
H21   H     H_    0.065217 0.885831 0.286411 0.101222
C57   C     C_3   0.084760 0.111006 0.385710 -0.317613
H22   H     H_    0.122650 0.206794 0.417868 0.202493
H23   H     H_    0.044141 0.192212 0.347687 0.190959
C58   C     C_3   0.071060 0.001947 0.463437 -0.816926
H24   H     H_    0.032266 0.908428 0.433119 0.231329
H25   H     H_    0.059159 0.096216 0.512869 0.240138
H26   H     H_    0.111394 0.921400 0.503191 0.238070
O23   O     O_3   0.618796 0.585752 0.749698 -0.555324
C59   C     C_3   0.602214 0.477911 0.816139 0.092099
H27   H     H_    0.642594 0.396778 0.855099 0.145333
H28   H     H_    0.564778 0.379365 0.785313 0.101315
C60   C     C_3   0.585385 0.602031 0.886171 -0.316473
H29   H     H_    0.623704 0.696070 0.918863 0.201780
H30   H     H_    0.545093 0.685168 0.848820 0.190679
C61   C     C_3   0.571340 0.491882 0.963275 -0.814831
H31   H     H_    0.532034 0.400442 0.932465 0.231352
H32   H     H_    0.560051 0.585611 0.013501 0.240212
H33   H     H_    0.611299 0.409051 0.002286 0.235820
O24   O     O_3   0.381535 0.592916 0.250445 -0.555119
C62   C     C_3   0.397762 0.485978 0.183350 0.092754
H34   H     H_    0.357079 0.406709 0.143749 0.144918
H35   H     H_    0.434774 0.385810 0.213587 0.101218
C63   C     C_3   0.415245 0.611000 0.114295 -0.317626
H36   H     H_    0.377371 0.706857 0.082166 0.202510
H37   H     H_    0.455882 0.692136 0.152317 0.190934
C64   C     C_3   0.428912 0.501936 0.036541 -0.816870
H38   H     H_    0.467694 0.408359 0.066833 0.231318
H39   H     H_    0.440815 0.596200 0.987108 0.240133
H40   H     H_    0.388562 0.421446 0.996797 0.238064
O25   O     O_3   0.786897 0.010752 0.790800 -0.570777
C65   C     C_3   0.729488 0.096849 0.767305 0.040650
H41   H     H_    0.723562 0.173035 0.701283 0.183558
H42   H     H_    0.725276 0.198597 0.820086 0.140418
C66   C     C_3   0.679019 0.954446 0.745920 -0.284604
H43   H     H_    0.677343 0.883241 0.679836 0.208403
H44   H     H_    0.688729 0.853056 0.803448 0.234105
C67   C     C_3   0.617260 0.039698 0.734189 -0.810262
H45   H     H_    0.615267 0.087988 0.803277 0.208736
H46   H     H_    0.581046 0.936657 0.707337 0.253176
H47   H     H_    0.608723 0.154300 0.683448 0.228899
O26   O     O_3   0.213054 0.019357 0.209544 -0.570681
C68   C     C_3   0.270599 0.104666 0.233181 0.040628
H48   H     H_    0.276946 0.179029 0.299870 0.181398
H49   H     H_    0.274645 0.208272 0.181156 0.141786
C69   C     C_3   0.320840 0.961610 0.252873 -0.283271
H50   H     H_    0.323053 0.889503 0.318937 0.209225
H51   H     H_    0.310516 0.860941 0.194933 0.233299
C70   C     C_3   0.382533 0.046372 0.263597 -0.811569
H52   H     H_    0.383880 0.095911 0.194373 0.208394
H53   H     H_    0.418691 0.942715 0.289193 0.254144
H54   H     H_    0.391692 0.160002 0.314950 0.228640
O27   O     O_3   0.713101 0.510753 0.709201 -0.570782
C71   C     C_3   0.770510 0.596849 0.732697 0.040652
H55   H     H_    0.776435 0.673036 0.798718 0.183558
H56   H     H_    0.774724 0.698597 0.679915 0.140426
C72   C     C_3   0.820980 0.454447 0.754084 -0.284613
H57   H     H_    0.822653 0.383236 0.820166 0.208402
H58   H     H_    0.811273 0.353060 0.696555 0.234104
C73   C     C_3   0.882740 0.539701 0.765824 -0.810255
H59   H     H_    0.884737 0.587993 0.696739 0.208738
H60   H     H_    0.918953 0.436662 0.792681 0.253163
H61   H     H_    0.891273 0.654304 0.816565 0.228903
O28   O     O_3   0.286944 0.519363 0.290454 -0.570683
C74   C     C_3   0.229399 0.604669 0.266817 0.040627
H62   H     H_    0.223052 0.679027 0.200126 0.181402
H63   H     H_    0.225352 0.708277 0.318841 0.141792
C75   C     C_3   0.179159 0.461611 0.247126 -0.283286
H64   H     H_    0.176958 0.389468 0.181078 0.209247
H65   H     H_    0.189473 0.360972 0.305080 0.233277
C76   C     C_3   0.117462 0.546380 0.236361 -0.811537
H66   H     H_    0.116100 0.595964 0.305569 0.208394
H67   H     H_    0.081306 0.442715 0.210766 0.254132
H68   H     H_    0.108309 0.659978 0.184989 0.228639

loop_
_geom_bond_atom_site_label_1
_geom_bond_atom_site_label_2
_ccdc_geom_bond_type
O17   V3    S    
C47   C51   T    
C51   C52   S    
O1    C5    A    
C54   H15   S    
O19   V1    S    
C9    C21   A    
O3    C7    A    
O23   C59   S    
C10   C18   A    
C69   C70   S    
O15   V3    S    
C65   C66   S    
C57   H23   S    
C68   H48   S    
C53   H13   S    
C62   H34   S    
C74   H63   S    
C39   H11   S    
C76   H66   S    
O7    C3    A    
C66   H44   S    
C35   C40   A    
C56   H20   S    
C36   C39   A    
C40   C44   A    
O9    V1    S    
C71   H55   S    
C69   H51   S    
C14   C18   A    
O4    C8    A    
C62   H35   S    
C75   H64   S    
C60   H29   S    
C55   H19   S    
C2    C47   S    
O1    V3    S    
C25   C33   A    
C31   C43   A    
C59   C60   S    
O2    V4    S    
C70   H54   S    
C42   O22   S    
O3    V1    S    
C61   H31   S    
C57   H22   S    
C22   H1    S    
C28   C36   A    
C17   H6    S    
C40   H12   S    
C1    O15   A    
C15   C31   A    
C37   H9    S    
C16   C32   A    
C55   H18   S    
O2    C6    A    
C70   H52   S    
C67   H47   S    
C10   C22   A    
C2    O16   A    
C11   C19   A    
C16   C20   A    
C16   O28   S    
C45   C49   T    
C64   H40   S    
C13   C29   A    
C34   C37   A    
O11   C7    A    
C11   C23   A    
C35   C36   A    
O12   C8    A    
C58   H25   S    
O10   V2    S    
C59   H28   S    
C59   H27   S    
C68   H49   S    
C74   C75   S    
C73   H60   S    
C76   H67   S    
C3    C46   S    
C66   C67   S    
C39   C43   A    
O7    V3    S    
C38   C42   A    
O8    V4    S    
C33   C38   A    
C69   H50   S    
C44   O24   S    
C74   H62   S    
O18   V4    S    
C62   C63   S    
C15   C19   A    
C63   C64   S    
C7    C9    S    
C49   C50   S    
C8    C10   S    
C15   O27   S    
C61   H33   S    
C26   C34   A    
C20   H7    S    
C41   O21   S    
O5    C1    A    
C23   C27   A    
C73   H61   S    
C53   H14   S    
C72   H57   S    
C14   C30   A    
C21   C25   A    
O8    C4    A    
C60   C61   S    
C55   H17   S    
C72   H58   S    
C72   C73   S    
O9    C5    A    
C26   C30   A    
C67   H45   S    
O14   V2    S    
C43   O23   S    
O6    V2    S    
C54   C55   S    
C56   C57   S    
O25   C65   S    
C58   H26   S    
C13   O25   S    
C12   C20   A    
C27   C35   A    
C58   H24   S    
O5    V1    S    
C68   C69   S    
C29   C41   A    
C53   C54   S    
C73   H59   S    
O16   V4    S    
C76   H68   S    
C19   H8    S    
C60   H30   S    
C3    O13   A    
C18   H5    S    
C63   H37   S    
C21   H2    S    
C14   O26   S    
C38   H10   S    
C71   C72   S    
C48   C52   T    
C67   H46   S    
O26   C68   S    
O6    C2    A    
C65   H42   S    
O11   V3    S    
C65   H41   S    
C30   C42   A    
O12   V4    S    
C6    C12   S    
C66   H43   S    
C22   C26   A    
C56   H21   S    
C9    C17   A    
O10   C6    A    
C71   H56   S    
C5    C11   S    
C64   H38   S    
C46   C50   T    
O13   V1    S    
C33   C34   A    
O28   C74   S    
C75   H65   S    
C63   H36   S    
C25   C29   A    
O20   V2    S    
O22   C56   S    
C32   C44   A    
C4    C45   S    
C12   C24   A    
C27   C31   A    
C70   H53   S    
C13   C17   A    
C61   H32   S    
C23   H4    S    
C1    C48   S    
C37   C41   A    
C24   C28   A    
C54   H16   S    
C4    O14   A    
O27   C71   S    
O24   C62   S    
C24   H3    S    
O21   C53   S    
C57   C58   S    
O4    V2    S    
C28   C32   A    
C64   H39   S    
C75   C76   S    
