data_str_m9_o17_o18_f0_sra.sym.46
_audit_creation_date              2012-12-11T15:18:35-0500
_audit_creation_method            fapswitch 2.2
_symmetry_space_group_name_H-M    P1
_symmetry_Int_Tables_number       1
_space_group_crystal_system       triclinic
_cell_length_a                    6.940314
_cell_length_b                    19.740361
_cell_length_c                    23.859422
_cell_angle_alpha                 93.598856
_cell_angle_beta                  91.33191
_cell_angle_gamma                 88.47451
_cell_volume                      3260.47850693

loop_
_atom_site_label
_atom_site_type_symbol
_atom_type_description
_atom_site_fract_x
_atom_site_fract_y
_atom_site_fract_z
_atom_type_partial_charge
O1    O     O_R   0.620100 0.812200 0.810870 -0.540050
O2    O     O_R   0.379900 0.187800 0.189130 -0.540029
O3    O     O_R   0.296960 0.671650 0.794750 -0.538489
O4    O     O_R   0.703040 0.328350 0.205250 -0.541437
O5    O     O_R   0.120160 0.687800 0.689130 -0.545053
O6    O     O_R   0.879840 0.312200 0.310870 -0.534282
C1    C     C_R   0.469292 0.646564 0.804538 0.706350
C2    C     C_R   0.530561 0.353321 0.195166 0.702315
O7    O     O_R   0.290810 0.810670 0.817290 -0.538120
O8    O     O_R   0.709190 0.189330 0.182710 -0.538859
O9    O     O_R   0.113980 0.827820 0.711840 -0.538631
O10   O     O_R   0.886020 0.172180 0.288160 -0.531687
C3    C     C_R   0.458925 0.833345 0.832882 0.711709
C4    C     C_R   0.540978 0.166869 0.166953 0.710777
O11   O     O_R   0.626290 0.672180 0.788160 -0.533357
O12   O     O_R   0.373710 0.327820 0.211840 -0.536545
O13   O     O_3   0.451520 0.755460 0.715370 -0.377064
O14   O     O_3   0.548480 0.244540 0.284630 -0.368461
V1    V     V_3+5 0.179200 0.748980 0.756420 1.404455
V2    V     V_3+5 0.820800 0.251020 0.243580 1.413882
O15   O     O_R   0.783880 0.828350 0.705250 -0.544105
O16   O     O_R   0.216120 0.171650 0.294750 -0.548144
C5    C     C_R   0.950046 0.852594 0.694619 0.695083
C6    C     C_R   0.049779 0.147284 0.305239 0.699487
O17   O     O_R   0.790030 0.689320 0.682700 -0.540976
O18   O     O_R   0.209970 0.310680 0.317300 -0.550480
C7    C     C_R   0.959185 0.669208 0.665210 0.762312
C8    C     C_R   0.041103 0.330930 0.334736 0.754997
V3    V     V_3+5 0.678400 0.751010 0.743570 1.399441
V4    V     V_3+5 0.321600 0.248990 0.256430 1.393816
O19   O     O_3   0.955950 0.744540 0.784620 -0.364303
O20   O     O_3   0.044050 0.255460 0.215380 -0.367297
C9    C     C_R   0.017654 0.449448 0.375811 -0.289949
C10   C     C_R   0.944158 0.551269 0.623064 -0.271333
C11   C     C_R   0.031504 0.379848 0.384237 -0.156659
C12   C     C_R   0.969208 0.620347 0.615727 -0.160198
C13   C     C_R   0.031182 0.357558 0.439295 0.393374
C14   C     C_R   0.006339 0.641959 0.561886 0.381272
C15   C     C_R   0.999816 0.405680 0.485339 -0.022000
C16   C     C_R   0.997833 0.594203 0.514769 -0.027287
C17   C     C_R   0.998681 0.475837 0.476685 -0.042396
C18   C     C_R   0.985878 0.524131 0.523074 -0.041180
C19   C     C_R   0.004990 0.497827 0.421571 0.045600
C20   C     C_R   0.958192 0.502487 0.577529 0.053612
C21   C     C_R   0.962696 0.385059 0.539327 -0.290605
C22   C     C_R   0.995226 0.615177 0.459575 -0.292879
C23   C     C_R   0.940788 0.432779 0.585571 0.416332
C24   C     C_R   0.988468 0.567785 0.413201 0.420136
H1    H     H_    0.018655 0.465636 0.333250 0.149090
H2    H     H_    0.918975 0.535694 0.664994 0.160743
H3    H     H_    0.944514 0.331792 0.545015 0.150120
H4    H     H_    0.991795 0.668674 0.451903 0.152288
C25   C     C_R   0.951654 0.914215 0.662868 -0.041465
C26   C     C_R   0.046410 0.085571 0.336849 -0.042028
C27   C     C_R   0.934397 0.036533 0.662714 -0.175758
C28   C     C_R   0.056385 0.963142 0.336670 -0.171764
C29   C     C_R   0.935939 0.977618 0.691786 -0.170415
C30   C     C_R   0.063238 0.022175 0.307926 -0.171510
C31   C     C_R   0.967634 0.909962 0.604068 -0.237719
C32   C     C_R   0.021148 0.089718 0.395306 -0.232320
C33   C     C_R   0.967504 0.969561 0.573203 0.089973
C34   C     C_R   0.012825 0.030052 0.425829 0.087483
C35   C     C_R   0.949670 0.033201 0.604040 0.152585
C36   C     C_R   0.031308 0.966413 0.395000 0.149987
C37   C     C_R   0.985662 0.968487 0.513229 0.060575
C38   C     C_R   0.988095 0.031088 0.485554 0.062448
C39   C     C_R   0.965085 0.092532 0.518501 -0.204976
C40   C     C_R   0.001225 0.906987 0.480002 -0.199568
C41   C     C_R   0.946913 0.093347 0.576338 -0.217147
C42   C     C_R   0.023925 0.906172 0.422314 -0.210838
H5    H     H_    0.930658 0.141929 0.599690 0.135428
H6    H     H_    0.036128 0.857521 0.398737 0.119495
H7    H     H_    0.009210 0.140020 0.415370 0.123867
H8    H     H_    0.980048 0.859653 0.584051 0.126444
H9    H     H_    0.080116 0.018398 0.262854 0.098801
H10   H     H_    0.925003 0.981497 0.737062 0.099603
H11   H     H_    0.922118 0.085007 0.686364 0.113243
H12   H     H_    0.069758 0.914569 0.313072 0.106818
H13   H     H_    0.959342 0.141377 0.500832 0.138238
H14   H     H_    0.995233 0.858093 0.497279 0.136399
C43   C     C_R   0.494087 0.585251 0.836942 -0.078749
C44   C     C_R   0.504978 0.415772 0.163927 -0.084639
C45   C     C_R   0.605868 0.467612 0.840467 0.084449
C46   C     C_R   0.330983 0.523754 0.155352 0.080718
C47   C     C_R   0.558011 0.524398 0.809887 -0.181538
C48   C     C_R   0.382918 0.467529 0.185996 -0.185807
C49   C     C_R   0.471357 0.588780 0.895248 -0.214849
C50   C     C_R   0.570222 0.418970 0.108957 -0.221274
C51   C     C_R   0.534033 0.534283 0.928324 0.054091
C52   C     C_R   0.524961 0.476185 0.076798 0.057379
C53   C     C_R   0.622005 0.475846 0.900329 0.072027
C54   C     C_R   0.422414 0.532345 0.103410 0.063879
C55   C     C_R   0.513228 0.536068 0.988198 0.030045
C56   C     C_R   0.572676 0.478846 0.018679 0.036183
C57   C     C_R   0.682683 0.427209 0.990438 -0.217305
C58   C     C_R   0.442513 0.594181 0.019022 -0.199880
C59   C     C_R   0.724299 0.428754 0.933470 0.054800
C60   C     C_R   0.416055 0.594879 0.076910 0.047636
H15   H     H_    0.648238 0.374763 0.092004 0.102013
H16   H     H_    0.410701 0.635686 0.913373 0.098084
H17   H     H_    0.321407 0.462454 0.226785 0.115397
H18   H     H_    0.563969 0.520495 0.764435 0.114094
H19   H     H_    0.746864 0.386111 0.012414 0.121425
H20   H     H_    0.417743 0.641540 0.999811 0.119731
C61   C     C_R   0.469250 0.048224 0.125921 0.033286
C62   C     C_R   0.529832 0.952199 0.873700 0.033145
C63   C     C_R   0.530460 0.115445 0.119271 -0.093909
C64   C     C_R   0.469090 0.884924 0.880450 -0.092655
C65   C     C_R   0.580290 0.134960 0.066258 -0.243899
C66   C     C_R   0.417878 0.865623 0.933391 -0.246028
C67   C     C_R   0.567042 0.089746 0.018877 0.106844
C68   C     C_R   0.429978 0.911001 0.980660 0.105937
C69   C     C_R   0.504985 0.023091 0.024057 0.032628
C70   C     C_R   0.492347 0.977624 0.975463 0.033915
C71   C     C_R   0.455867 0.001799 0.077587 0.084069
C72   C     C_R   0.541236 0.998924 0.921905 0.083699
C73   C     C_R   0.613587 0.110805 0.966102 -0.182246
C74   C     C_R   0.380997 0.890230 0.033305 -0.182365
C75   C     C_R   0.600405 0.066453 0.918416 -0.199775
C76   C     C_R   0.393765 0.934637 0.080931 -0.198279
H21   H     H_    0.626919 0.186361 0.061848 0.111710
H22   H     H_    0.371039 0.814251 0.937842 0.109065
H23   H     H_    0.660081 0.162133 0.961549 0.120279
H24   H     H_    0.332410 0.839154 0.037775 0.126007
H25   H     H_    0.637038 0.086497 0.879095 0.131480
H26   H     H_    0.353936 0.915050 0.120108 0.129607
C77   C     C_3   0.891297 0.383586 0.911564 -0.387990
C78   C     C_3   0.078655 0.394454 0.946515 -0.275873
C79   C     C_3   0.241719 0.348394 0.923293 -0.786896
H27   H     H_    0.198104 0.294531 0.920252 0.226903
H28   H     H_    0.280734 0.363529 0.881200 0.240244
H29   H     H_    0.369991 0.352804 0.951669 0.228138
H30   H     H_    0.121556 0.448286 0.945873 0.206698
H31   H     H_    0.059055 0.382734 0.990869 0.192730
H32   H     H_    0.849912 0.329598 0.912048 0.169038
H33   H     H_    0.926443 0.394612 0.868096 0.180500
C80   C     C_3   0.403835 0.663711 0.109720 -0.390693
C81   C     C_3   0.569156 0.710433 0.096540 -0.291272
C82   C     C_3   0.582584 0.770652 0.139746 -0.785177
H34   H     H_    0.441604 0.798382 0.142836 0.227115
H35   H     H_    0.624912 0.752821 0.181640 0.224955
H36   H     H_    0.692919 0.806017 0.126935 0.220390
H37   H     H_    0.709155 0.681809 0.096336 0.196543
H38   H     H_    0.544743 0.730435 0.054403 0.186149
H39   H     H_    0.264007 0.689513 0.099758 0.166060
H40   H     H_    0.413332 0.656984 0.155472 0.188464
C83   C     C_3   0.616024 0.398249 0.808680 -0.385876
C84   C     C_3   0.439324 0.384824 0.769657 -0.300768
C85   C     C_3   0.407188 0.308697 0.758726 -0.812695
H41   H     H_    0.545270 0.280563 0.750827 0.244353
H42   H     H_    0.339690 0.288067 0.795579 0.231006
H43   H     H_    0.310795 0.299861 0.721509 0.219626
H44   H     H_    0.306712 0.408639 0.788365 0.195147
H45   H     H_    0.461722 0.407572 0.728921 0.198515
H46   H     H_    0.748346 0.394080 0.783176 0.172207
H47   H     H_    0.622082 0.357606 0.838704 0.189525
C86   C     C_3   0.161655 0.568619 0.175599 -0.394145
C87   C     C_3   0.985733 0.528227 0.190475 -0.275986
C88   C     C_3   0.806692 0.574488 0.194162 -0.760304
H48   H     H_    0.836364 0.621691 0.220221 0.227111
H49   H     H_    0.761189 0.588188 0.151493 0.232427
H50   H     H_    0.688210 0.547969 0.212943 0.228921
H51   H     H_    0.959463 0.486411 0.157962 0.205296
H52   H     H_    0.010631 0.505987 0.231732 0.188873
H53   H     H_    0.206974 0.600983 0.213032 0.175040
H54   H     H_    0.112020 0.601899 0.142197 0.187490
C89   C     C_3   0.426480 0.025772 0.184325 -0.374727
C90   C     C_3   0.597570 0.985018 0.208145 -0.318576
C91   C     C_3   0.553460 0.960871 0.265892 -0.741793
H55   H     H_    0.525323 0.004992 0.296094 0.241199
H56   H     H_    0.425708 0.928014 0.263091 0.222342
H57   H     H_    0.678602 0.930957 0.281753 0.218981
H58   H     H_    0.632975 0.940065 0.179549 0.198677
H59   H     H_    0.726230 0.017513 0.212020 0.193443
H60   H     H_    0.395139 0.069365 0.214454 0.182076
H61   H     H_    0.292643 0.996204 0.183098 0.159363
C92   C     C_3   0.574302 0.974294 0.815307 -0.376736
C93   C     C_3   0.401455 0.012926 0.790202 -0.317174
C94   C     C_3   0.446684 0.036815 0.732441 -0.739998
H62   H     H_    0.571095 0.071203 0.735598 0.222002
H63   H     H_    0.480578 0.992641 0.702822 0.240876
H64   H     H_    0.319866 0.065036 0.715602 0.221470
H65   H     H_    0.275788 0.979051 0.785978 0.193206
H66   H     H_    0.360968 0.057834 0.818252 0.197557
H67   H     H_    0.705604 0.005231 0.816863 0.160796
H68   H     H_    0.611095 0.930573 0.785858 0.182492
O21   O     O_3   0.048645 0.288477 0.446874 -0.592823
C95   C     C_3   0.227458 0.272957 0.473967 -0.009086
H69   H     H_    0.205836 0.228412 0.499096 0.147018
H70   H     H_    0.279786 0.314228 0.504114 0.124506
C96   C     C_3   0.383460 0.254426 0.430893 -0.279163
H71   H     H_    0.330412 0.214219 0.400173 0.207739
H72   H     H_    0.416344 0.300000 0.408188 0.199669
C97   C     C_3   0.569152 0.228937 0.459025 -0.802318
H73   H     H_    0.626747 0.268685 0.489466 0.235480
H74   H     H_    0.679021 0.216443 0.426619 0.248514
H75   H     H_    0.542332 0.182440 0.481290 0.226762
O22   O     O_3   0.035118 0.710465 0.555762 -0.592019
C98   C     C_3   0.223271 0.720989 0.536223 -0.010485
H76   H     H_    0.211396 0.760910 0.505475 0.143904
H77   H     H_    0.292232 0.675622 0.513887 0.125378
C99   C     C_3   0.356556 0.745291 0.584787 -0.268958
H78   H     H_    0.287348 0.788947 0.608932 0.205938
H79   H     H_    0.382412 0.703102 0.612893 0.206943
C100  C     C_3   0.550211 0.766884 0.563611 -0.788006
H80   H     H_    0.622146 0.723885 0.539346 0.237151
H81   H     H_    0.645214 0.782849 0.599828 0.247967
H82   H     H_    0.529442 0.810316 0.536467 0.221861
O23   O     O_3   0.877844 0.414227 0.637198 -0.581672
C101  C     C_3   0.980754 0.357618 0.657375 0.056752
H83   H     H_    0.028938 0.372534 0.701032 0.148795
H84   H     H_    0.113805 0.342401 0.633896 0.095657
C102  C     C_3   0.845281 0.297778 0.658692 -0.294874
H85   H     H_    0.703075 0.316753 0.674108 0.222081
H86   H     H_    0.822336 0.274126 0.615712 0.174358
C103  C     C_3   0.924023 0.243875 0.696832 -0.887786
H87   H     H_    0.062221 0.221743 0.680667 0.233773
H88   H     H_    0.818268 0.202825 0.697953 0.226811
H89   H     H_    0.946928 0.266121 0.740340 0.238837
O24   O     O_3   0.968050 0.589841 0.359375 -0.581588
C104  C     C_3   0.778623 0.616681 0.351208 0.073346
H90   H     H_    0.779526 0.647057 0.313709 0.140796
H91   H     H_    0.731723 0.652737 0.386361 0.105560
C105  C     C_3   0.632224 0.559875 0.341185 -0.344035
H92   H     H_    0.684649 0.522279 0.308081 0.199746
H93   H     H_    0.616008 0.533140 0.380359 0.193324
C106  C     C_3   0.435341 0.588296 0.323429 -0.791032
H94   H     H_    0.376566 0.623525 0.357333 0.245348
H95   H     H_    0.334123 0.546055 0.315030 0.245060
H96   H     H_    0.447644 0.615960 0.284635 0.215866

loop_
_geom_bond_atom_site_label_1
_geom_bond_atom_site_label_2
_ccdc_geom_bond_type
C40   H14   S    
C97   H74   S    
C55   C56   A    
O11   V3    S    
O13   V3    S    
C17   C18   A    
C83   C84   S    
C103  H89   S    
C71   C76   A    
C59   C77   S    
V1    O19   S    
C105  H92   S    
C68   C70   A    
C93   C94   S    
C25   C31   A    
C81   C82   S    
C92   H67   S    
C15   C17   A    
C26   C32   A    
C102  H85   S    
C16   C22   A    
C61   C63   A    
O9    V1    S    
C86   C87   S    
C84   H45   S    
C95   C96   S    
C2    C44   S    
C29   H10   S    
C80   H39   S    
C11   C13   A    
C103  H88   S    
C79   H27   S    
C104  C105  S    
O3    C1    A    
C81   H37   S    
C85   H42   S    
C88   H48   S    
C26   C30   A    
C27   H11   S    
C82   H36   S    
C76   H26   S    
C100  H82   S    
C97   H75   S    
C21   H3    S    
C6    C26   S    
C22   H4    S    
C32   H7    S    
C28   H12   S    
C95   H70   S    
C91   H55   S    
C41   H5    S    
O7    C3    A    
C34   C36   A    
C65   C67   A    
O13   V1    S    
C1    C43   S    
O5    C7    A    
O7    V1    S    
O6    C8    A    
C35   C41   A    
C8    C11   S    
O8    V2    S    
C99   C100  S    
C58   C60   A    
C98   C99   S    
C14   O22   S    
O3    V1    S    
O22   C98   S    
O14   V4    S    
C36   C42   A    
C28   C30   A    
C51   C53   A    
C83   H46   S    
C19   C24   A    
C17   C19   A    
C62   C92   S    
C10   C12   A    
C93   H65   S    
C20   C23   A    
O4    C2    A    
C15   C21   A    
C79   H29   S    
C43   C47   A    
C21   C23   A    
C97   H73   S    
C98   H76   S    
C2    O12   A    
C14   C16   A    
C78   C79   S    
V3    O19   S    
C63   C65   A    
C18   C20   A    
C3    C64   S    
O24   C104  S    
C57   H19   S    
C30   H9    S    
C52   C56   A    
C66   C68   A    
C102  H86   S    
O15   C5    A    
O17   V3    S    
C90   H58   S    
C22   C24   A    
C10   H2    S    
C31   C33   A    
C99   H78   S    
C34   C38   A    
C60   C80   S    
C54   C60   A    
C96   H71   S    
C9    C19   A    
C80   H40   S    
C39   H13   S    
C77   H33   S    
C69   C70   A    
O8    C4    A    
C85   H43   S    
C86   H53   S    
C89   C90   S    
C25   C29   A    
C1    O11   A    
C44   C48   A    
O15   V3    S    
C42   H6    S    
C53   C59   A    
C92   H68   S    
C61   C89   S    
C27   C35   A    
C95   H69   S    
C39   C41   A    
C90   H59   S    
C96   H72   S    
C104  H90   S    
C78   H31   S    
C68   C74   A    
C52   C54   A    
C106  H94   S    
C46   C86   S    
C37   C40   A    
O10   V2    S    
O1    V3    S    
O23   C101  S    
C88   H50   S    
C10   C20   A    
C67   C69   A    
C74   H24   S    
C103  H87   S    
C83   H47   S    
C31   H8    S    
C43   C49   A    
C99   H79   S    
C87   H51   S    
C45   C83   S    
C75   H25   S    
C40   C42   A    
C90   C91   S    
C106  H95   S    
C50   C52   A    
C37   C38   A    
C55   C58   A    
C101  H84   S    
C27   C29   A    
C87   C88   S    
C91   H57   S    
O16   C6    A    
O1    C3    A    
C84   H44   S    
O12   V4    S    
C77   C78   S    
C105  C106  S    
O6    V2    S    
C89   H60   S    
C49   H16   S    
C24   O24   S    
C102  C103  S    
C58   H20   S    
C100  H80   S    
C4    C63   S    
O16   V4    S    
C45   C47   A    
C61   C71   A    
C33   C35   A    
C46   C48   A    
C16   C18   A    
C105  H93   S    
C86   H54   S    
C70   C72   A    
C82   H34   S    
C57   C59   A    
O18   V4    S    
O5    V1    S    
C87   H52   S    
C7    C12   S    
O17   C7    A    
C101  C102  S    
C45   C53   A    
C80   C81   S    
O10   C6    A    
O18   C8    A    
C72   C75   A    
C67   C73   A    
O2    V4    S    
C94   H64   S    
C73   C75   A    
C88   H49   S    
C73   H23   S    
C96   C97   S    
O21   C95   S    
C13   C15   A    
V2    O20   S    
C78   H30   S    
C66   H22   S    
C32   C34   A    
V4    O20   S    
C82   H35   S    
C65   H21   S    
C28   C36   A    
C13   O21   S    
C62   C64   A    
C44   C50   A    
C5    C25   S    
O9    C5    A    
C77   H32   S    
C9    C11   A    
C64   C66   A    
C100  H81   S    
C38   C39   A    
O14   V2    S    
C84   C85   S    
C101  H83   S    
C51   C55   A    
C56   C57   A    
O2    C4    A    
C74   C76   A    
C50   H15   S    
C12   C14   A    
C94   H62   S    
O4    V2    S    
C33   C37   A    
C79   H28   S    
C23   O23   S    
C106  H96   S    
C104  H91   S    
C92   C93   S    
C62   C72   A    
C98   H77   S    
C49   C51   A    
C81   H38   S    
C46   C54   A    
C94   H63   S    
C85   H41   S    
C48   H17   S    
C9    H1    S    
C93   H66   S    
C47   H18   S    
C89   H61   S    
C69   C71   A    
C91   H56   S    
