data_str_m9_o2_o17_f0_sra.sym.146
_audit_creation_date              2013-03-05T16:02:01-0500
_audit_creation_method            fapswitch 2.2
_symmetry_space_group_name_H-M    P1
_symmetry_Int_Tables_number       1
_space_group_crystal_system       triclinic
_cell_length_a                    6.939387
_cell_length_b                    17.482789
_cell_length_c                    19.657808
_cell_angle_alpha                 108.362021
_cell_angle_beta                  89.830482
_cell_angle_gamma                 91.020003
_cell_volume                      2263.08842134

loop_
_atom_site_label
_atom_site_type_symbol
_atom_site_description
_atom_site_fract_x
_atom_site_fract_y
_atom_site_fract_z
_atom_type_partial_charge
O1    O     O_R   0.494330 0.415720 0.413720 -0.585069
O2    O     O_R   0.819330 0.430070 0.560210 -0.517476
O3    O     O_R   0.994320 0.584280 0.586280 -0.595234
C1    C     C_R   0.650264 0.419043 0.585209 1.167285
O4    O     O_R   0.823730 0.406300 0.412670 -0.584084
O5    O     O_R   0.998760 0.560340 0.437690 -0.601432
C2    C     C_R   0.652923 0.378436 0.388699 0.979686
O6    O     O_R   0.489890 0.439660 0.562310 -0.548005
O7    O     O_3   0.662340 0.550560 0.508380 -0.310172
V1    V     V_3+5 0.935370 0.490620 0.498450 1.293858
O8    O     O_R   0.328750 0.569930 0.439790 -0.603778
C3    C     C_R   0.160943 0.587101 0.419943 0.928964
O9    O     O_R   0.324340 0.593700 0.587330 -0.608416
C4    C     C_R   0.157147 0.615361 0.615786 0.931123
V2    V     V_3+5 0.435940 0.509380 0.501550 1.250457
O10   O     O_3   0.159100 0.449440 0.491620 -0.208042
C5    C     C_R   0.165457 0.592021 0.755748 -0.348116
C6    C     C_R   0.163694 0.578310 0.821867 0.834895
C7    C     C_R   0.139790 0.641995 0.884641 -0.183138
C8    C     C_R   0.122041 0.720250 0.882073 -0.209453
C9    C     C_R   0.127224 0.736471 0.815992 0.112841
C10   C     C_R   0.146221 0.670633 0.751311 0.012155
C11   C     C_R   0.112160 0.816545 0.813818 -0.228497
C12   C     C_R   0.113306 0.829745 0.745485 -0.028373
C13   C     C_R   0.150394 0.764524 0.681942 0.066400
C14   C     C_R   0.152370 0.684408 0.684034 -0.185688
C15   C     C_R   0.076814 0.906166 0.737679 0.282716
C16   C     C_R   0.117385 0.920927 0.673100 -0.293649
C17   C     C_R   0.176326 0.859101 0.612778 0.373374
C18   C     C_R   0.184254 0.780743 0.616764 -0.314451
H1    H     H_    0.186401 0.540817 0.708308 0.204947
H2    H     H_    0.136688 0.630843 0.935776 0.199414
H3    H     H_    0.104357 0.767727 0.932482 0.150556
H4    H     H_    0.092323 0.980325 0.669093 0.206274
H5    H     H_    0.219675 0.732653 0.568554 0.151291
C19   C     C_R   0.303556 0.634349 0.322765 -0.179119
C20   C     C_R   0.156079 0.639299 0.373098 -0.113737
C21   C     C_R   0.004426 0.693303 0.377466 -0.056416
C22   C     C_R   0.995960 0.739306 0.330074 0.170217
C23   C     C_R   0.142490 0.732217 0.278550 0.093462
C24   C     C_R   0.297066 0.679933 0.275418 0.150602
C25   C     C_R   0.841514 0.790805 0.332011 -0.145422
C26   C     C_R   0.832185 0.834614 0.283393 -0.155557
C27   C     C_R   0.977239 0.827941 0.231863 0.129108
C28   C     C_R   0.133520 0.776668 0.229479 0.013835
C29   C     C_R   0.280522 0.769325 0.177958 -0.017298
C30   C     C_R   0.434286 0.717348 0.176309 -0.105366
C31   C     C_R   0.441304 0.673016 0.224037 -0.182064
C32   C     C_R   0.968779 0.871787 0.182962 -0.178667
C33   C     C_R   0.114103 0.865308 0.131301 -0.308990
C34   C     C_R   0.270796 0.813588 0.129015 0.288074
H6    H     H_    0.421211 0.593264 0.319172 0.155522
H7    H     H_    0.891130 0.698135 0.416614 0.118985
H8    H     H_    0.726785 0.796668 0.370739 0.165049
H9    H     H_    0.710700 0.873507 0.285893 0.145179
H10   H     H_    0.850741 0.912535 0.186150 0.169853
H11   H     H_    0.549989 0.710100 0.137859 0.196771
H12   H     H_    0.559497 0.632738 0.220096 0.208418
C35   C     C_R   0.786051 0.179980 0.864083 0.001637
C36   C     C_R   0.623970 0.131282 0.866273 -0.118720
C37   C     C_R   0.467324 0.129756 0.820757 -0.170946
C38   C     C_R   0.469666 0.176676 0.774496 0.059781
C39   C     C_R   0.630501 0.226839 0.774068 0.157254
C40   C     C_R   0.789472 0.228230 0.818999 0.110194
C41   C     C_R   0.314158 0.174137 0.728535 -0.393381
C42   C     C_R   0.314115 0.223123 0.684343 0.894665
C43   C     C_R   0.471252 0.275742 0.685134 -0.318752
C44   C     C_R   0.632678 0.275510 0.728612 -0.160493
C45   C     C_R   0.796161 0.324070 0.727088 0.011870
C46   C     C_R   0.953093 0.324928 0.772340 0.012162
C47   C     C_R   0.949286 0.277962 0.818155 -0.212241
C48   C     C_R   0.471323 0.327975 0.643213 0.874605
C49   C     C_R   0.639923 0.371917 0.636856 -0.618032
C50   C     C_R   0.801137 0.370030 0.679868 0.750426
H13   H     H_    0.910241 0.180526 0.897295 0.191090
H14   H     H_    0.344536 0.091207 0.820956 0.186357
H15   H     H_    0.190992 0.134741 0.727291 0.201506
H16   H     H_    0.081001 0.360818 0.771581 0.216238
H17   H     H_    0.072820 0.279743 0.852261 0.169284
C51   C     C_R   0.732751 0.409890 0.259046 -0.422474
C52   C     C_R   0.781686 0.431392 0.198608 0.172609
C53   C     C_R   0.774351 0.372546 0.131914 0.678198
C54   C     C_R   0.721182 0.293080 0.125392 0.125636
C55   C     C_R   0.676392 0.268809 0.186533 -0.127987
C56   C     C_R   0.683391 0.329461 0.255026 0.078479
C57   C     C_R   0.624073 0.187585 0.181763 -0.186015
C58   C     C_R   0.585397 0.168058 0.245276 0.118803
C59   C     C_R   0.596540 0.228174 0.314134 -0.082457
C60   C     C_R   0.642516 0.310431 0.318817 -0.175444
C61   C     C_R   0.537043 0.087439 0.240593 -0.247344
C62   C     C_R   0.497875 0.065350 0.300718 -0.279130
C63   C     C_R   0.510222 0.121644 0.368516 0.334715
C64   C     C_R   0.561913 0.202544 0.375518 0.188841
H18   H     H_    0.736339 0.457573 0.309729 0.205751
H19   H     H_    0.528649 0.039275 0.190135 0.158858
H20   H     H_    0.460714 0.002966 0.294162 0.180019
O11   O     O_R   0.775200 0.060470 0.937800 -0.541727
O12   O     O_R   0.441110 0.093720 0.087350 -0.595344
O13   O     O_R   0.266330 0.939630 0.062280 -0.580711
C65   C     C_R   0.611890 0.120683 0.111857 0.972602
O14   O     O_R   0.445750 0.069950 0.939820 -0.606448
O15   O     O_R   0.271000 0.915700 0.913700 -0.594929
C66   C     C_R   0.614791 0.082904 0.916466 1.117903
O16   O     O_R   0.770530 0.084400 0.086380 -0.585996
O17   O     O_3   0.602830 0.949510 0.991680 -0.244620
V3    V     V_3+5 0.329710 0.009370 0.001550 1.277133
O18   O     O_R   0.940990 0.906170 0.912570 -0.562558
C67   C     C_R   0.108059 0.885555 0.883030 0.966758
O19   O     O_R   0.936350 0.929940 0.060100 -0.572381
C68   C     C_R   0.104569 0.914626 0.081677 0.967765
V4    V     V_3+5 0.829160 0.990450 0.998310 1.310031
O20   O     O_3   0.105910 0.050480 0.008320 -0.249756
N1    N     N_R   0.218456 0.875061 0.546653 0.250554
O21   O     O_R   0.193094 0.946438 0.541062 -0.302000
O22   O     O_R   0.288720 0.819168 0.492170 -0.420043
N2    N     N_R   0.418237 0.804622 0.076084 0.228256
O23   O     O_R   0.411491 0.743582 0.017560 -0.413729
O24   O     O_R   0.574910 0.848437 0.092086 -0.414999
F1    F     F_    0.161202 0.217541 0.639995 -0.601366
F2    F     F_    0.306377 0.336780 0.609727 -0.553955
F3    F     F_    0.961377 0.414810 0.677414 -0.658688
N3    N     N_R   0.467484 0.095767 0.429851 0.270028
O25   O     O_R   0.349661 0.035097 0.423410 -0.319688
O26   O     O_R   0.558896 0.126731 0.490247 -0.270484
N4    N     N_R   0.838325 0.513204 0.205887 0.250136
O27   O     O_R   0.915561 0.532304 0.152888 -0.308318
O28   O     O_R   0.817521 0.569350 0.266898 -0.484596
F4    F     F_    0.816639 0.391792 0.071663 -0.591542
N5    N     N_R   0.716824 0.238486 0.054863 0.219981
O29   O     O_R   0.574786 0.243321 0.013523 -0.408423
O30   O     O_R   0.880002 0.209475 0.026545 -0.400021
F5    F     F_    0.187971 0.502936 0.825254 -0.695329
N6    N     N_R   0.571987 0.258183 0.445509 0.201545
O31   O     O_R   0.411675 0.282615 0.478753 -0.312315
O32   O     O_R   0.732573 0.266110 0.481198 -0.368333
N7    N     N_R   0.963850 0.963814 0.788869 0.221132
O33   O     O_R   0.016071 0.039244 0.808545 -0.489779
O34   O     O_R   0.785966 0.944747 0.798313 -0.426905

loop_
_geom_bond_atom_site_label_1
_geom_bond_atom_site_label_2
_geom_bond_distance
_ccdc_geom_bond_type
C27   C32   1.407600 A    
C13   C18   1.414909 A    
C58   C59   1.429758 A    
C46   H16   1.080632 S    
C49   C50   1.411397 A    
C6    F5    1.353716 S    
C7    C8    1.392482 A    
C12   C15   1.419216 A    
C33   C68   1.493911 S    
C1    O6    1.300217 A    
C47   H17   1.083816 S    
C52   C53   1.388740 A    
C61   H19   1.081045 S    
V3    O20   1.710099 S    
C28   C29   1.414026 A    
C35   C40   1.402763 A    
C17   C18   1.398647 A    
C18   H5    1.081387 S    
C15   N7    1.423839 S    
C16   C17   1.395377 A    
C20   C21   1.410693 A    
C55   C57   1.433537 A    
C54   N5    1.414079 S    
C64   N6    1.413882 S    
O19   V4    1.997683 S    
O5    C3    1.299623 A    
C21   C22   1.411488 A    
O11   V4    1.997499 S    
V2    O10   2.151401 S    
C2    C60   1.508092 S    
C65   O16   1.298671 A    
N2    O23   1.299849 A    
C43   C48   1.409666 A    
C40   C47   1.400279 A    
C3    C20   1.487488 S    
C62   H20   1.083626 S    
C59   C64   1.431666 A    
O8    V2    1.997734 S    
C30   C31   1.393953 A    
C44   C45   1.410750 A    
O18   C67   1.300093 A    
O15   C67   1.304755 A    
C46   C47   1.396782 A    
O1    V2    2.016093 S    
C36   C66   1.488768 S    
C57   C65   1.499372 S    
O7    V1    2.159999 S    
C19   H6    1.084479 S    
C48   C49   1.415018 A    
C59   C60   1.441800 A    
C42   C43   1.410999 A    
O17   V4    1.702484 S    
C16   H4    1.082984 S    
C35   C36   1.407285 A    
O14   C66   1.300367 A    
O9    C4    1.296442 A    
C19   C24   1.404371 A    
C45   C46   1.405064 A    
C7    H2    1.082648 S    
C5    C6    1.393935 A    
C22   C25   1.404719 A    
C37   H14   1.077700 S    
C23   C28   1.418696 A    
C41   H15   1.083531 S    
C43   C44   1.411851 A    
C12   C13   1.427548 A    
N7    O34   1.300893 A    
C62   C63   1.386884 A    
O4    C2    1.304764 A    
C56   C60   1.421643 A    
C57   C58   1.417989 A    
C6    C7    1.389119 A    
C13   C14   1.414446 A    
O13   C68   1.296742 A    
C29   C34   1.414344 A    
C53   C54   1.397331 A    
C4    C14   1.496322 S    
C36   C37   1.404483 A    
O2    C1    1.305112 A    
C26   C27   1.405919 A    
C51   C56   1.419053 A    
C63   N3    1.443313 S    
C30   H11   1.082449 S    
C54   C55   1.426756 A    
C11   C12   1.432799 A    
C48   F2    1.357100 S    
C38   C39   1.408757 A    
C33   C34   1.418122 A    
C45   C50   1.406123 A    
C55   C56   1.427797 A    
C53   F4    1.359278 S    
C1    C49   1.496386 S    
O11   C66   1.300284 A    
O3    C4    1.300715 A    
C8    H3    1.081970 S    
C26   H9    1.083779 S    
C23   C24   1.410305 A    
C41   C42   1.398871 A    
O6    V2    1.997157 S    
O12   C65   1.303526 A    
C42   F1    1.357832 S    
C9    C11   1.419663 A    
N4    O27   1.301430 A    
C5    H1    1.081668 S    
C25   C26   1.402677 A    
C51   H18   1.079042 S    
O2    V1    2.004135 S    
C35   H13   1.080817 S    
C22   C23   1.412251 A    
C27   C28   1.410556 A    
N4    O28   1.298100 A    
N1    O21   1.301757 A    
O14   V3    2.004057 S    
C38   C41   1.400574 A    
O13   V3    2.000018 S    
C17   N1    1.440946 S    
C29   C30   1.407507 A    
C19   C20   1.406078 A    
V4    O20   2.151452 S    
C52   N4    1.439483 S    
O1    C2    1.303203 A    
O18   V4    2.020487 S    
C5    C10   1.412949 A    
C51   C52   1.393786 A    
O5    V1    2.000220 S    
O16   V4    2.022044 S    
O8    C3    1.298951 A    
C31   H12   1.077208 S    
C32   H10   1.083840 S    
O17   V3    2.159969 S    
C39   C44   1.414641 A    
C34   N2    1.432028 S    
O12   V3    2.004267 S    
O9    V2    2.020661 S    
N5    O29   1.300025 A    
O4    V1    2.004408 S    
O3    V1    2.007148 S    
V1    O10   1.710091 S    
O19   C68   1.303792 A    
C25   H8    1.083571 S    
C61   C62   1.379074 A    
N6    O31   1.297622 A    
C21   H7    1.084120 S    
C11   C67   1.508079 S    
C63   C64   1.416886 A    
C24   C31   1.399295 A    
N2    O24   1.299355 A    
O15   V3    2.007162 S    
O7    V2    1.704319 S    
C37   C38   1.403405 A    
C39   C40   1.410306 A    
C50   F3    1.358008 S    
C8    C9    1.414406 A    
C32   C33   1.409494 A    
C10   C14   1.417343 A    
C58   C61   1.417474 A    
C15   C16   1.399690 A    
N6    O32   1.300419 A    
N7    O33   1.297087 A    
N5    O30   1.299297 A    
N3    O25   1.301806 A    
C9    C10   1.428721 A    
N3    O26   1.300892 A    
N1    O22   1.301602 A    
