data_str_m4_o22_o24_f0_acs.sym.136
_audit_creation_date              2012-12-11T15:08:43-0500
_audit_creation_method            fapswitch 2.2
_symmetry_space_group_name_H-M    P1
_symmetry_Int_Tables_number       1
_space_group_crystal_system       triclinic
_cell_length_a                    19.4949
_cell_length_b                    11.366678
_cell_length_c                    18.718394
_cell_angle_alpha                 90.078436
_cell_angle_beta                  90.612672
_cell_angle_gamma                 90.053052
_cell_volume                      4147.6082019

loop_
_atom_site_label
_atom_site_type_symbol
_atom_type_description
_atom_site_fract_x
_atom_site_fract_y
_atom_site_fract_z
_atom_type_partial_charge
C1    C     C_R   0.271826 0.043576 0.854259 0.533685
C2    C     C_R   0.727915 0.043131 0.145714 0.532797
C3    C     C_R   0.772428 0.542120 0.854889 0.534880
C4    C     C_R   0.228096 0.543205 0.145707 0.532894
C5    C     C_3   0.564103 0.832309 0.965431 -0.136547
C6    C     C_3   0.544035 0.732236 0.016536 -0.113255
C7    C     C_3   0.961095 0.227681 0.981802 -0.106981
C8    C     C_3   0.938407 0.324987 0.033915 -0.151908
C9    C     C_3   0.313635 0.524069 0.041485 -0.242146
C10   C     C_3   0.688850 0.517713 0.960294 -0.241098
C11   C     C_3   0.809971 0.018502 0.039556 -0.245716
C12   C     C_3   0.186591 0.023045 0.958775 -0.242517
C13   C     C_3   0.313932 0.527160 0.958728 -0.257234
C14   C     C_3   0.690784 0.516884 0.043026 -0.260422
C15   C     C_3   0.804006 0.015288 0.957080 -0.264159
C16   C     C_3   0.187511 0.023026 0.041621 -0.259677
C17   C     C_3   0.181525 0.528296 0.025857 -0.191961
C18   C     C_3   0.821456 0.529893 0.974502 -0.193384
C19   C     C_3   0.679029 0.034807 0.026284 -0.191412
C20   C     C_3   0.318984 0.030485 0.973858 -0.192130
C21   C     C_3   0.246921 0.705872 0.056252 -0.259179
C22   C     C_3   0.751748 0.702973 0.944885 -0.260620
C23   C     C_3   0.750240 0.207082 0.057138 -0.252242
C24   C     C_3   0.252395 0.206287 0.944482 -0.259005
C25   C     C_3   0.244153 0.573722 0.069691 0.047767
C26   C     C_3   0.757177 0.571340 0.931302 0.046405
C27   C     C_3   0.743352 0.074804 0.069887 0.048153
C28   C     C_3   0.255819 0.074253 0.930402 0.048296
C29   C     C_3   0.255497 0.608899 0.930880 0.079440
C30   C     C_3   0.745903 0.606008 0.070233 0.080878
C31   C     C_3   0.753940 0.114249 0.931837 0.062023
C32   C     C_3   0.244767 0.107569 0.069513 0.081267
C33   C     C_3   0.187263 0.543839 0.944790 -0.091231
C34   C     C_3   0.816329 0.547886 0.055728 -0.088059
C35   C     C_3   0.678361 0.076614 0.948355 -0.086656
C36   C     C_3   0.313534 0.044659 0.055003 -0.090915
C37   C     C_3   0.261494 0.724381 0.975827 -0.215495
C38   C     C_3   0.736363 0.720391 0.025233 -0.214926
C39   C     C_3   0.771181 0.225275 0.977818 -0.224432
C40   C     C_3   0.237193 0.223262 0.024947 -0.213556
C41   C     C_3   0.494344 0.701231 0.457896 -0.234144
C42   C     C_3   0.492254 0.700985 0.537940 -0.226881
C43   C     C_3   0.994344 0.201233 0.457898 -0.234084
C44   C     C_3   0.992256 0.200986 0.537942 -0.226872
C45   C     C_R   0.470700 0.820205 0.853899 0.535618
C46   C     C_R   0.531853 0.820097 0.144420 0.532830
C47   C     C_R   0.969010 0.320310 0.854945 0.533347
C48   C     C_R   0.030336 0.319943 0.145429 0.532646
C49   C     C_3   0.568252 0.882657 0.474341 -0.224245
C50   C     C_3   0.437071 0.909015 0.525871 -0.213185
C51   C     C_3   0.068253 0.382657 0.474344 -0.223944
C52   C     C_3   0.937074 0.409017 0.525874 -0.213088
C53   C     C_3   0.445742 0.901084 0.443965 -0.255849
C54   C     C_3   0.558146 0.882041 0.556262 -0.262129
C55   C     C_3   0.945744 0.401086 0.443968 -0.255871
C56   C     C_3   0.058148 0.382042 0.556266 -0.262299
C57   C     C_3   0.508954 0.827513 0.430170 0.060965
C58   C     C_3   0.488004 0.828440 0.568552 0.065911
C59   C     C_3   0.008955 0.327514 0.430172 0.061177
C60   C     C_3   0.988007 0.328441 0.568555 0.065926
C61   C     C_3   0.184322 0.661495 0.456467 -0.233601
C62   C     C_3   0.822684 0.640872 0.539379 -0.227049
C63   C     C_3   0.684324 0.161499 0.456464 -0.233596
C64   C     C_3   0.322683 0.140872 0.539379 -0.227015
C65   C     C_3   0.186071 0.666061 0.536469 -0.227553
C66   C     C_3   0.820798 0.645082 0.459351 -0.235633
C67   C     C_3   0.686074 0.166065 0.536465 -0.227653
C68   C     C_3   0.320797 0.145082 0.459351 -0.235642
C69   C     C_3   0.239876 0.461157 0.472381 -0.222188
C70   C     C_3   0.744615 0.454839 0.526691 -0.212964
C71   C     C_3   0.739877 0.961160 0.472378 -0.222315
C72   C     C_3   0.244614 0.954838 0.526692 -0.212876
C73   C     C_3   0.309600 0.634597 0.443395 -0.258445
C74   C     C_3   0.698389 0.648278 0.556759 -0.264163
C75   C     C_3   0.809601 0.134600 0.443391 -0.258351
C76   C     C_3   0.198388 0.148276 0.556759 -0.264186
C77   C     C_3   0.240920 0.576797 0.429072 0.063177
C78   C     C_3   0.760416 0.570555 0.569263 0.067743
C79   C     C_3   0.740921 0.076800 0.429069 0.063187
C80   C     C_3   0.260416 0.070554 0.569263 0.067940
C81   C     C_3   0.252598 0.608161 0.567120 0.067071
C82   C     C_3   0.749454 0.603663 0.431366 0.063106
C83   C     C_3   0.752601 0.108166 0.567117 0.066451
C84   C     C_3   0.249453 0.103661 0.431366 0.062939
C85   C     C_3   0.244236 0.477064 0.554285 -0.264586
C86   C     C_3   0.743773 0.472622 0.444976 -0.256737
C87   C     C_3   0.744239 0.977068 0.554282 -0.264453
C88   C     C_3   0.243774 0.972621 0.444976 -0.256787
C89   C     C_R   0.262207 0.641210 0.854303 0.538267
C90   C     C_R   0.738494 0.638926 0.146553 0.535508
C91   C     C_R   0.762125 0.142903 0.854817 0.535841
C92   C     C_R   0.238084 0.139954 0.146090 0.536738
C93   C     C_3   0.318506 0.643726 0.525284 -0.213351
C94   C     C_3   0.692643 0.664462 0.475010 -0.224837
C95   C     C_3   0.818508 0.143731 0.525279 -0.213579
C96   C     C_3   0.192643 0.164460 0.475010 -0.224796
C97   C     C_R   0.273535 0.042038 0.645305 0.538280
C98   C     C_R   0.727593 0.045496 0.353244 0.534635
C99   C     C_R   0.773535 0.542038 0.645305 0.538926
C100  C     C_R   0.227593 0.545494 0.353245 0.534517
C101  C     C_R   0.467606 0.822842 0.644942 0.534404
C102  C     C_R   0.530603 0.822806 0.353978 0.532136
C103  C     C_R   0.967609 0.322842 0.644945 0.534211
C104  C     C_R   0.030604 0.322806 0.353980 0.531314
C105  C     C_R   0.260967 0.641170 0.643352 0.536910
C106  C     C_R   0.739926 0.638567 0.355515 0.534172
C107  C     C_R   0.760970 0.141178 0.643348 0.538722
C108  C     C_R   0.239926 0.138567 0.355515 0.534529
C109  C     C_3   0.442364 0.807968 0.031498 -0.144775
C110  C     C_3   0.463201 0.908059 0.979990 -0.140265
C111  C     C_3   0.036409 0.411371 0.019537 -0.141201
C112  C     C_3   0.059971 0.314279 0.966870 -0.144734
C113  C     C_3   0.474196 0.718761 0.979376 -0.097897
C114  C     C_3   0.532162 0.920649 0.018454 -0.131983
C115  C     C_3   0.967109 0.417542 0.981291 -0.140701
C116  C     C_3   0.031457 0.221171 0.018559 -0.096624
C117  C     C_3   0.494423 0.820018 0.929002 0.063052
C118  C     C_3   0.511898 0.821325 0.068047 0.050747
C119  C     C_3   0.989985 0.321387 0.930768 0.058720
C120  C     C_3   0.008320 0.319479 0.069820 0.059061
Cr1   Cr    Cr6+3 0.229620 0.836040 0.749110 0.984069
Cr2   Cr    Cr6+3 0.770380 0.836040 0.250890 0.982986
Cr3   Cr    Cr6+3 0.729620 0.336040 0.749110 0.986073
Cr4   Cr    Cr6+3 0.270380 0.336040 0.250890 0.983169
Cr5   Cr    Cr6+3 0.387630 0.990680 0.750730 0.993695
Cr6   Cr    Cr6+3 0.612370 0.990680 0.249270 0.989187
Cr7   Cr    Cr6+3 0.887630 0.490680 0.750730 0.991798
Cr8   Cr    Cr6+3 0.112370 0.490680 0.249270 0.990491
Cr9   Cr    Cr6+3 0.386020 0.676590 0.749210 0.994754
Cr10  Cr    Cr6+3 0.613980 0.676590 0.250790 0.994078
Cr11  Cr    Cr6+3 0.886020 0.176590 0.749210 0.995594
Cr12  Cr    Cr6+3 0.113980 0.176590 0.250790 0.993681
H1    H     H_    0.458819 0.629180 0.964008 0.109049
H2    H     H_    0.541521 0.004227 0.045102 0.120260
H3    H     H_    0.955715 0.505775 0.961167 0.114261
H4    H     H_    0.049960 0.133605 0.033087 0.108049
H5    H     H_    0.197325 0.746183 0.071003 0.119939
H6    H     H_    0.800716 0.745954 0.930329 0.120017
H7    H     H_    0.699659 0.247403 0.067366 0.132948
H8    H     H_    0.301789 0.248287 0.930535 0.120354
H9    H     H_    0.286870 0.747764 0.090360 0.094082
H10   H     H_    0.710958 0.742517 0.910856 0.098289
H11   H     H_    0.788345 0.246679 0.094456 0.093337
H12   H     H_    0.212486 0.247567 0.910266 0.094066
H13   H     H_    0.314564 0.756646 0.970133 0.111206
H14   H     H_    0.682824 0.749649 0.031255 0.110560
H15   H     H_    0.826613 0.240681 0.974699 0.117834
H16   H     H_    0.183529 0.252606 0.030518 0.112962
H17   H     H_    0.227170 0.790630 0.954550 0.142147
H18   H     H_    0.768730 0.788992 0.046624 0.142132
H19   H     H_    0.748172 0.304357 0.956064 0.120670
H20   H     H_    0.270130 0.291490 0.046673 0.140768
H21   H     H_    0.635062 0.072173 0.052245 0.162505
H22   H     H_    0.361296 0.087017 0.956281 0.144294
H23   H     H_    0.138745 0.583049 0.043736 0.146079
H24   H     H_    0.863919 0.584827 0.955481 0.147314
H25   H     H_    0.532639 0.634569 0.442185 0.135976
H26   H     H_    0.451289 0.643294 0.554912 0.137098
H27   H     H_    0.032638 0.134570 0.442186 0.135997
H28   H     H_    0.951294 0.143293 0.554914 0.137043
H29   H     H_    0.445446 0.669965 0.435009 0.117163
H30   H     H_    0.539004 0.656894 0.559288 0.113582
H31   H     H_    0.945446 0.169968 0.435011 0.117112
H32   H     H_    0.039007 0.156896 0.559288 0.113500
H33   H     H_    0.608998 0.824538 0.462834 0.111511
H34   H     H_    0.383994 0.896817 0.541603 0.111226
H35   H     H_    0.108998 0.324536 0.462837 0.111548
H36   H     H_    0.883997 0.396822 0.541607 0.111241
H37   H     H_    0.598510 0.829728 0.583723 0.104456
H38   H     H_    0.399881 0.861454 0.418052 0.101311
H39   H     H_    0.098512 0.329728 0.583727 0.104098
H40   H     H_    0.899882 0.361457 0.418056 0.101213
H41   H     H_    0.393911 0.800413 0.060991 0.087931
H42   H     H_    0.444660 0.988783 0.956574 0.118714
H43   H     H_    0.050903 0.496529 0.041466 0.117898
H44   H     H_    0.108306 0.310792 0.937053 0.086153
H45   H     H_    0.453890 0.989830 0.420761 0.114916
H46   H     H_    0.561102 0.972747 0.578269 0.110928
H47   H     H_    0.953893 0.489832 0.420764 0.114802
H48   H     H_    0.061104 0.472747 0.578274 0.110411
H49   H     H_    0.451511 0.999794 0.540534 0.120144
H50   H     H_    0.578566 0.973030 0.455930 0.129093
H51   H     H_    0.951515 0.499796 0.540537 0.120123
H52   H     H_    0.078568 0.473029 0.455932 0.129096
H53   H     H_    0.131433 0.636639 0.440537 0.136722
H54   H     H_    0.872374 0.608260 0.556791 0.137290
H55   H     H_    0.631434 0.136642 0.440535 0.136744
H56   H     H_    0.372374 0.108262 0.556792 0.137333
H57   H     H_    0.192407 0.749785 0.433694 0.115782
H58   H     H_    0.821867 0.732189 0.560832 0.113490
H59   H     H_    0.692409 0.249788 0.433691 0.115792
H60   H     H_    0.321865 0.232189 0.560832 0.113434
H61   H     H_    0.178644 0.756463 0.553296 0.136724
H62   H     H_    0.834518 0.736023 0.443927 0.135637
H63   H     H_    0.678646 0.256466 0.553293 0.136548
H64   H     H_    0.334517 0.236022 0.443927 0.135653
H65   H     H_    0.140325 0.619861 0.557710 0.113038
H66   H     H_    0.860978 0.588777 0.436641 0.116287
H67   H     H_    0.640328 0.119863 0.557706 0.113352
H68   H     H_    0.360977 0.088777 0.436642 0.116360
H69   H     H_    0.690821 0.927461 0.458793 0.111839
H70   H     H_    0.277213 0.881511 0.542812 0.111434
H71   H     H_    0.190821 0.427456 0.458793 0.111847
H72   H     H_    0.777214 0.381513 0.542811 0.111293
H73   H     H_    0.697497 0.943495 0.580601 0.105488
H74   H     H_    0.286515 0.924529 0.419605 0.101300
H75   H     H_    0.197493 0.443492 0.580603 0.104922
H76   H     H_    0.786514 0.424530 0.419604 0.101231
H77   H     H_    0.350226 0.578283 0.420159 0.115027
H78   H     H_    0.651266 0.606808 0.578123 0.111111
H79   H     H_    0.850227 0.078285 0.420155 0.114968
H80   H     H_    0.151266 0.106806 0.578124 0.110985
H81   H     H_    0.312023 0.722508 0.418026 0.101733
H82   H     H_    0.704887 0.734024 0.584497 0.104143
H83   H     H_    0.812024 0.222510 0.418020 0.101685
H84   H     H_    0.204886 0.234022 0.584498 0.103844
H85   H     H_    0.612338 0.836332 0.935561 0.084709
H86   H     H_    0.573844 0.656304 0.032693 0.112538
H87   H     H_    0.933163 0.147891 0.965288 0.111603
H88   H     H_    0.891145 0.324795 0.065388 0.086515
H89   H     H_    0.338764 0.729095 0.541588 0.112264
H90   H     H_    0.702302 0.754382 0.464198 0.112228
H91   H     H_    0.838766 0.229100 0.541582 0.112165
H92   H     H_    0.202302 0.254379 0.464199 0.112214
H93   H     H_    0.357172 0.576909 0.539960 0.121205
H94   H     H_    0.641583 0.635761 0.456016 0.130516
H95   H     H_    0.857176 0.076916 0.539955 0.121177
H96   H     H_    0.141582 0.135758 0.456016 0.130515
H97   H     H_    0.281177 0.401720 0.454685 0.130082
H98   H     H_    0.691624 0.430668 0.540976 0.120508
H99   H     H_    0.781176 0.901721 0.454682 0.130099
H100  H     H_    0.191623 0.930666 0.540976 0.120507
H101  H     H_    0.288439 0.427317 0.576877 0.110394
H102  H     H_    0.694724 0.440263 0.421382 0.115502
H103  H     H_    0.788444 0.927322 0.576872 0.110498
H104  H     H_    0.194724 0.940261 0.421383 0.115525
H105  H     H_    0.327172 0.437302 0.061656 0.120158
H106  H     H_    0.675981 0.431686 0.938668 0.121698
H107  H     H_    0.823964 0.933873 0.062151 0.122919
H108  H     H_    0.172256 0.937395 0.936925 0.122052
H109  H     H_    0.356464 0.580019 0.061905 0.121347
H110  H     H_    0.644846 0.572600 0.942007 0.121385
H111  H     H_    0.854927 0.073588 0.055186 0.121192
H112  H     H_    0.143581 0.079948 0.940098 0.121193
H113  H     H_    0.363980 0.557344 0.939922 0.137628
H114  H     H_    0.639748 0.530038 0.065826 0.132091
H115  H     H_    0.855594 0.021948 0.933435 0.133661
H116  H     H_    0.137195 0.046746 0.062566 0.135607
H117  H     H_    0.307824 0.437743 0.936766 0.102313
H118  H     H_    0.704038 0.429050 0.062103 0.101244
H119  H     H_    0.782704 0.930586 0.939396 0.107101
H120  H     H_    0.196299 0.933440 0.061687 0.101012
H121  H     H_    0.674647 0.938552 0.028908 0.097700
H122  H     H_    0.330453 0.938802 0.959719 0.102147
H123  H     H_    0.170401 0.436329 0.039471 0.103302
H124  H     H_    0.833379 0.437603 0.961694 0.104708
H125  H     H_    0.667148 0.999228 0.914049 0.105019
H126  H     H_    0.308766 0.954451 0.077336 0.092921
H127  H     H_    0.193143 0.454369 0.921681 0.092992
H128  H     H_    0.813307 0.459270 0.080141 0.090567
O1    O     O_R   0.214130 0.708570 0.829890 -0.537163
O2    O     O_R   0.785870 0.708570 0.170110 -0.536944
O3    O     O_R   0.714130 0.208570 0.829890 -0.548101
O4    O     O_R   0.285870 0.208570 0.170110 -0.538250
O5    O     O_R   0.446360 0.919990 0.675230 -0.513245
O6    O     O_R   0.553640 0.919990 0.324770 -0.512325
O7    O     O_R   0.946360 0.419990 0.675230 -0.513502
O8    O     O_R   0.053640 0.419990 0.324770 -0.512955
O9    O     O_R   0.457170 0.717300 0.668380 -0.535047
O10   O     O_R   0.542830 0.717300 0.331620 -0.534563
O11   O     O_R   0.957170 0.217300 0.668380 -0.534939
O12   O     O_R   0.042830 0.217300 0.331620 -0.534956
O13   O     O_R   0.320870 0.624890 0.673130 -0.512212
O14   O     O_R   0.679130 0.624890 0.326870 -0.512517
O15   O     O_R   0.820870 0.124890 0.673130 -0.511897
O16   O     O_R   0.179130 0.124890 0.326870 -0.512301
O17   O     O_3   0.334430 0.834430 0.749680 -0.269737
O18   O     O_3   0.665570 0.834430 0.250320 -0.265933
O19   O     O_3   0.834430 0.334430 0.749680 -0.270526
O20   O     O_3   0.165570 0.334430 0.250320 -0.266038
O21   O     O_R   0.236050 0.959150 0.825270 -0.514351
O22   O     O_R   0.763950 0.959150 0.174730 -0.514164
O23   O     O_R   0.736050 0.459150 0.825270 -0.514311
O24   O     O_R   0.263950 0.459150 0.174730 -0.515393
O25   O     O_R   0.332100 0.076650 0.832310 -0.531658
O26   O     O_R   0.667900 0.076650 0.167690 -0.537437
O27   O     O_R   0.832100 0.576650 0.832310 -0.531434
O28   O     O_R   0.167900 0.576650 0.167690 -0.532546
O29   O     O_R   0.446500 0.918620 0.826240 -0.511661
O30   O     O_R   0.553500 0.918620 0.173760 -0.516667
O31   O     O_R   0.946500 0.418620 0.826240 -0.514007
O32   O     O_R   0.053500 0.418620 0.173760 -0.514694
O33   O     O_R   0.457310 0.715830 0.831280 -0.527700
O34   O     O_R   0.542690 0.715830 0.168720 -0.523872
O35   O     O_R   0.957310 0.215830 0.831280 -0.525427
O36   O     O_R   0.042690 0.215830 0.168720 -0.526448
O37   O     O_R   0.321000 0.623520 0.824130 -0.513563
O38   O     O_R   0.679000 0.623520 0.175870 -0.514964
O39   O     O_R   0.821000 0.123520 0.824130 -0.509708
O40   O     O_R   0.179000 0.123520 0.175870 -0.514383
O41   O     O_R   0.213990 0.710040 0.667000 -0.537431
O42   O     O_R   0.786010 0.710040 0.333000 -0.537712
O43   O     O_R   0.713990 0.210040 0.667000 -0.535335
O44   O     O_R   0.286010 0.210040 0.333000 -0.537193
O45   O     O_R   0.235920 0.960520 0.674260 -0.513510
O46   O     O_R   0.764080 0.960520 0.325740 -0.513216
O47   O     O_R   0.735920 0.460520 0.674260 -0.512980
O48   O     O_R   0.264080 0.460520 0.325740 -0.513203
O49   O     O_R   0.331960 0.078120 0.669410 -0.534539
O50   O     O_R   0.668040 0.078120 0.330590 -0.533912
O51   O     O_R   0.831960 0.578120 0.669410 -0.534214
O52   O     O_R   0.168040 0.578120 0.330590 -0.534088
C121  C     C_3   0.119648 0.590109 0.908015 -0.253365
C122  C     C_3   0.093758 0.713038 0.928805 -0.419781
H129  H     H_    0.107144 0.738306 0.984244 0.129469
H130  H     H_    0.113581 0.780443 0.891844 0.174365
H131  H     H_    0.036937 0.715334 0.923654 0.120296
H132  H     H_    0.122751 0.582783 0.849068 0.169792
H133  H     H_    0.078015 0.528494 0.918384 0.135762
C123  C     C_3   0.883231 0.599805 0.091268 -0.252352
C124  C     C_3   0.905446 0.724193 0.069784 -0.421712
H134  H     H_    0.962361 0.730097 0.071198 0.118765
H135  H     H_    0.888186 0.748819 0.015411 0.132903
H136  H     H_    0.886587 0.789255 0.108912 0.173502
H137  H     H_    0.881263 0.592818 0.150301 0.169023
H138  H     H_    0.926477 0.541722 0.080256 0.135642
C125  C     C_3   0.621592 0.172347 0.928013 -0.250272
C126  C     C_3   0.560863 0.204427 0.975265 -0.483333
H139  H     H_    0.519502 0.139302 0.969835 0.149260
H140  H     H_    0.575747 0.223220 0.031385 0.141532
H141  H     H_    0.537687 0.287361 0.954854 0.128666
H142  H     H_    0.645786 0.257788 0.921116 0.180312
H143  H     H_    0.599523 0.148337 0.874893 0.166816
C127  C     C_3   0.380917 0.091014 0.092080 -0.255286
C128  C     C_3   0.405871 0.215212 0.073306 -0.421855
H144  H     H_    0.398651 0.237644 0.016263 0.129591
H145  H     H_    0.380839 0.282318 0.106567 0.179283
H146  H     H_    0.461385 0.221826 0.086259 0.122656
H147  H     H_    0.377802 0.081759 0.150940 0.169477
H148  H     H_    0.422810 0.030603 0.080170 0.133756

loop_
_geom_bond_atom_site_label_1
_geom_bond_atom_site_label_2
_ccdc_geom_bond_type
C82   C94   S    
C55   C59   S    
C35   H125  S    
C83   C87   S    
C73   C93   S    
C47   O31   A    
C42   C58   S    
C29   C89   S    
C16   H120  S    
C75   C95   S    
C121  H132  S    
C48   C120  S    
C24   H8    S    
C57   C102  S    
Cr6   O18   S    
Cr7   O7    S    
C85   H101  S    
C59   C104  S    
C63   H55   S    
Cr1   O17   S    
C5    C6    S    
Cr10  O10   S    
C109  H41   S    
Cr4   O4    S    
Cr12  O16   S    
C29   C33   S    
C87   H103  S    
C30   C38   S    
C77   C100  S    
C9    C13   S    
C87   H73   S    
C11   C15   S    
C127  H147  S    
C5    H85   S    
C12   C16   S    
C98   O50   A    
C99   O47   A    
C123  H138  S    
C60   C103  S    
C107  O15   A    
Cr4   O24   S    
C83   C107  S    
C113  H1    S    
C74   H82   S    
C61   H57   S    
C54   H37   S    
C23   H11   S    
C66   H62   S    
C109  C118  S    
C16   H116  S    
C70   H72   S    
Cr5   O25   S    
C50   C53   S    
C89   O37   A    
C7    C119  S    
Cr8   O28   S    
C62   H58   S    
C128  H145  S    
C62   C66   S    
Cr2   O2    S    
C20   C28   S    
C18   H124  S    
C122  H129  S    
Cr12  O36   S    
C43   C44   S    
C66   C82   S    
Cr9   O33   S    
C58   C101  S    
C105  O41   A    
C92   O4    A    
C107  O43   A    
C53   H38   S    
C116  H4    S    
C108  O44   A    
C56   H39   S    
C19   H21   S    
C89   O1    A    
Cr5   O49   S    
C17   H23   S    
C55   H40   S    
C91   O3    A    
Cr1   O45   S    
Cr5   O5    S    
Cr2   O42   S    
C3    C26   S    
C84   C88   S    
C31   C91   S    
C53   H45   S    
Cr12  O12   S    
C13   H117  S    
Cr10  O34   S    
C17   C25   S    
C19   C35   S    
C76   C96   S    
C1    O21   A    
C32   C92   S    
C75   H83   S    
Cr3   O19   S    
C95   H95   S    
C41   C57   S    
C128  H144  S    
C61   C65   S    
C12   H108  S    
C124  H134  S    
C78   C99   S    
C45   O29   A    
C128  H146  S    
C75   C79   S    
Cr5   O29   S    
C22   C38   S    
C67   C83   S    
C80   C97   S    
C11   H111  S    
C69   C77   S    
C111  C112  S    
C9    H109  S    
C71   C79   S    
C4    C25   S    
Cr4   O20   S    
C7    C8    S    
Cr10  O38   S    
C8    H88   S    
C96   H96   S    
C73   H77   S    
C24   H12   S    
C43   H27   S    
C100  O52   A    
C39   H19   S    
C49   C57   S    
C40   H20   S    
Cr11  O11   S    
Cr9   O37   S    
C38   H14   S    
C33   C121  S    
C52   C60   S    
C19   H121  S    
C61   C77   S    
C12   H112  S    
C11   C27   S    
C93   H93   S    
C36   H126  S    
C47   O35   A    
C110  C114  S    
C48   O36   A    
C43   C59   S    
C62   H54   S    
C76   H80   S    
C10   H106  S    
C6    H86   S    
C88   H74   S    
C22   H10   S    
Cr1   O21   S    
Cr2   O18   S    
C110  H42   S    
Cr12  O20   S    
C81   C105  S    
C30   C34   S    
C10   C14   S    
C127  C128  S    
C101  O9    A    
C95   H91   S    
C116  C120  S    
C103  O11   A    
C7    C116  S    
C69   H97   S    
C124  H136  S    
C33   H127  S    
C61   H53   S    
C114  H2    S    
C34   H128  S    
C66   H66   S    
C64   H56   S    
C113  C117  S    
C112  H44   S    
C115  C119  S    
Cr6   O26   S    
C9    H105  S    
Cr4   O48   S    
C112  C116  S    
C69   C85   S    
C85   H75   S    
C72   H70   S    
C56   H48   S    
C45   C117  S    
C21   C25   S    
C71   H99   S    
Cr12  O40   S    
C55   H47   S    
C62   C78   S    
C76   C80   S    
C126  H139  S    
C42   H30   S    
C15   C31   S    
C16   C32   S    
C97   O45   A    
C105  O13   A    
C106  O42   A    
C35   C125  S    
C72   C80   S    
C115  H3    S    
C4    O24   A    
C103  O7    A    
C82   C106  S    
C90   O2    A    
Cr6   O50   S    
C127  H148  S    
Cr8   O32   S    
C94   H90   S    
Cr6   O6    S    
C46   O34   A    
Cr7   O19   S    
Cr8   O20   S    
C81   C85   S    
C13   H113  S    
C41   H29   S    
C41   C42   S    
C74   C94   S    
Cr9   O13   S    
C18   C26   S    
C30   C90   S    
Cr11  O39   S    
C1    O25   A    
C9    C25   S    
C2    O22   A    
C3    O27   A    
C75   H79   S    
C86   H102  S    
C12   C28   S    
C13   C29   S    
C67   H67   S    
C98   O46   A    
C122  H130  S    
C46   C118  S    
C73   C77   S    
C22   C26   S    
C64   H60   S    
Cr6   O30   S    
C51   H35   S    
C106  O14   A    
C50   H34   S    
C1    C28   S    
C2    C27   S    
Cr10  O14   S    
C72   H100  S    
Cr11  O19   S    
C52   C55   S    
C122  H131  S    
C32   C36   S    
C64   C80   S    
C73   H81   S    
C42   H26   S    
C17   C33   S    
C126  H141  S    
C110  C117  S    
C38   H18   S    
C121  H133  S    
C65   H61   S    
C40   H16   S    
C68   C84   S    
C24   C28   S    
C51   H52   S    
C86   H76   S    
C53   C57   S    
C82   C86   S    
C56   C60   S    
C50   C58   S    
C104  O12   A    
C49   H33   S    
C48   O32   A    
Cr7   O27   S    
C111  C115  S    
C76   H84   S    
C65   C81   S    
C91   O39   A    
Cr8   O8    S    
C68   H64   S    
C123  H137  S    
C20   H122  S    
Cr2   O22   S    
C41   H25   S    
C92   O40   A    
C44   H28   S    
C31   C35   S    
C64   C68   S    
C125  H143  S    
C101  O5    A    
C102  O10   A    
C37   H17   S    
C108  O16   A    
C112  C119  S    
C14   H118  S    
C22   H6    S    
C21   H9    S    
C125  C126  S    
C109  C110  S    
C121  C122  S    
Cr5   O17   S    
C44   C60   S    
C63   H59   S    
C84   C108  S    
C94   H94   S    
C20   C36   S    
C54   H46   S    
C21   C37   S    
C74   C78   S    
C29   C37   S    
C44   H32   S    
C43   H31   S    
C97   O49   A    
C5    C114  S    
C70   C78   S    
C79   C98   S    
C99   O51   A    
C10   H110  S    
C52   H51   S    
C34   C123  S    
C63   C79   S    
C4    O28   A    
C20   H22   S    
C74   H78   S    
C111  H43   S    
C23   H7    S    
C46   O30   A    
C125  H142  S    
C11   H107  S    
C49   C54   S    
Cr3   O47   S    
C51   C56   S    
C84   C96   S    
C8    C115  S    
Cr1   O1    S    
Cr3   O3    S    
C124  H135  S    
Cr9   O17   S    
C23   C27   S    
C19   C27   S    
C109  C113  S    
C2    O26   A    
C7    H87   S    
C10   C26   S    
C47   C119  S    
C14   C30   S    
C67   H63   S    
C72   C88   S    
C88   H104  S    
C63   C67   S    
C126  H140  S    
Cr7   O31   S    
C96   H92   S    
Cr1   O41   S    
C21   H5    S    
C5    C117  S    
C111  C120  S    
Cr10  O18   S    
Cr3   O43   S    
C70   H98   S    
C6    C113  S    
Cr11  O15   S    
Cr4   O44   S    
C81   C93   S    
C83   C95   S    
Cr11  O35   S    
C18   C34   S    
C114  C118  S    
C65   H65   S    
C69   H71   S    
C71   C87   S    
C50   H49   S    
C51   C59   S    
C70   C86   S    
C8    C120  S    
Cr2   O46   S    
C54   C58   S    
C71   H69   S    
C17   H123  S    
C45   O33   A    
C104  O8    A    
C18   H24   S    
C15   H115  S    
C93   H89   S    
Cr7   O51   S    
Cr8   O52   S    
C68   H68   S    
C123  C124  S    
Cr3   O23   S    
C52   H36   S    
C90   O38   A    
C15   H119  S    
C23   C39   S    
C3    O23   A    
C24   C40   S    
C31   C39   S    
C32   C40   S    
Cr9   O9    S    
C49   H50   S    
C100  O48   A    
C102  O6    A    
C39   H15   S    
C36   C127  S    
C37   H13   S    
C6    C118  S    
C14   H114  S    
