data_str_m3_o1_o10_f0_pcu.sym.21
_audit_creation_date              2012-12-10T18:42:32-0500
_audit_creation_method            fapswitch 2.2
_symmetry_space_group_name_H-M    P1
_symmetry_Int_Tables_number       1
_space_group_crystal_system       triclinic
_cell_length_a                    8.678077
_cell_length_b                    10.626864
_cell_length_c                    9.899563
_cell_angle_alpha                 91.4331
_cell_angle_beta                  99.294341
_cell_angle_gamma                 90.650245
_cell_volume                      900.568245918

loop_
_atom_site_label
_atom_site_type_symbol
_atom_type_description
_atom_site_fract_x
_atom_site_fract_y
_atom_site_fract_z
_atom_type_partial_charge
C1    C     C_R   0.497221 0.260459 0.498111 0.943774
C2    C     C_R   0.367200 0.062612 0.534837 -0.246189
C3    C     C_R   0.506345 0.872228 0.505125 -0.351128
C4    C     C_R   0.493655 0.127772 0.494875 -0.351128
C5    C     C_R   0.587514 0.585584 0.088108 0.018005
C6    C     C_R   0.412486 0.414415 0.911892 0.018005
C7    C     C_R   0.588622 0.586570 0.944706 0.011424
C8    C     C_R   0.411378 0.413430 0.055294 0.011424
C9    C     C_2   0.967622 0.395892 0.330700 0.460550
C10   C     C_2   0.032378 0.604108 0.669300 0.460550
C11   C     C_2   0.773730 0.870633 0.433476 0.620798
C12   C     C_R   0.502779 0.739541 0.501888 0.943775
C13   C     C_2   0.226270 0.129367 0.566524 0.620797
C14   C     C_2   0.688404 0.681988 0.892975 0.526194
C15   C     C_2   0.311596 0.318012 0.107025 0.526195
C16   C     C_R   0.201431 0.500719 0.464056 0.923376
C17   C     C_R   0.798569 0.499281 0.535944 0.923377
C18   C     C_2   0.037612 0.481319 0.447652 -0.276071
C19   C     C_2   0.962388 0.518680 0.552347 -0.276071
C20   C     C_R   0.624250 0.067251 0.459957 0.707992
C21   C     C_R   0.375750 0.932749 0.540042 0.707992
C22   C     C_R   0.632800 0.937388 0.465163 -0.246189
F1    F     F_    0.744934 0.136293 0.426830 -0.637755
F2    F     F_    0.255066 0.863707 0.573170 -0.637755
H1    H     H_    0.657611 0.652737 0.156622 0.179729
H2    H     H_    0.342389 0.347263 0.843377 0.179729
H3    H     H_    0.884119 0.323085 0.345695 0.169634
H4    H     H_    0.115881 0.676915 0.654304 0.169634
H5    H     H_    0.789326 0.771622 0.454705 -0.013011
H6    H     H_    0.210674 0.228378 0.545295 -0.013010
H7    H     H_    0.714385 0.675679 0.790789 0.135123
H8    H     H_    0.285615 0.324321 0.209211 0.135123
N1    N     N_R   0.499960 0.499970 0.857200 -0.155966
N2    N     N_R   0.500040 0.500030 0.142800 -0.155966
O1    O     O_R   0.499990 0.316750 0.614620 -0.621336
O2    O     O_2   0.999226 0.592043 0.783542 -0.532349
O3    O     O_2   0.874542 0.925076 0.383237 -0.436995
O4    O     O_2   0.125456 0.074923 0.616760 -0.436996
O5    O     O_2   0.745817 0.770240 0.966223 -0.534972
O6    O     O_2   0.254183 0.229760 0.033777 -0.534972
O7    O     O_R   0.500010 0.683250 0.385380 -0.621336
O8    O     O_R   0.499990 0.316780 0.385290 -0.633753
O9    O     O_R   0.500010 0.683220 0.614710 -0.633753
O10   O     O_R   0.271750 0.499990 0.587840 -0.644114
O11   O     O_R   0.728250 0.500010 0.412160 -0.644115
O12   O     O_R   0.271750 0.500010 0.358510 -0.597674
O13   O     O_R   0.728250 0.499990 0.641490 -0.597674
O14   O     O_2   0.000774 0.407957 0.216458 -0.532349
Zn1   Zn    Zn3+2 0.500000 0.499980 0.653120 0.984713
Zn2   Zn    Zn3+2 0.500000 0.500020 0.346880 0.984713

loop_
_geom_bond_atom_site_label_1
_geom_bond_atom_site_label_2
_ccdc_geom_bond_type
O7    Zn2   S    
O1    Zn1   S    
C2    C4    A    
C6    N1    A    
C9    C18   S    
C12   O7    A    
C12   O9    A    
C16   O10   A    
C11   C22   S    
C20   F1    S    
C14   H7    S    
C1    C4    S    
C5    N2    A    
C2    C21   A    
C15   H8    S    
O13   Zn1   S    
C8    N2    A    
C7    N1    A    
C11   H5    S    
C13   O4    D    
C6    H2    S    
O11   Zn2   S    
O8    Zn2   S    
C5    H1    S    
C17   C19   S    
C10   C19   S    
C17   O11   A    
C8    C15   S    
C5    C7    A    
C7    C14   S    
C16   O12   A    
C15   O6    D    
C3    C21   A    
N2    Zn2   S    
N1    Zn1   S    
C4    C20   A    
C1    O8    A    
C13   H6    S    
C9    H3    S    
C9    O14   D    
C16   C18   S    
C18   C19   D    
C21   F2    S    
C10   H4    S    
C11   O3    D    
C2    C13   S    
O12   Zn2   S    
O9    Zn1   S    
C3    C22   A    
C6    C8    A    
C3    C12   S    
C1    O1    A    
C14   O5    D    
O10   Zn1   S    
C17   O13   A    
C20   C22   A    
C10   O2    D    
