data_str_m9_o16_o19_f0_sra.sym.91
_audit_creation_date              2012-12-11T15:09:47-0500
_audit_creation_method            fapswitch 2.2
_symmetry_space_group_name_H-M    P1
_symmetry_Int_Tables_number       1
_space_group_crystal_system       triclinic
_cell_length_a                    21.023473
_cell_length_b                    7.132655
_cell_length_c                    14.032782
_cell_angle_alpha                 90.039557
_cell_angle_beta                  98.598341
_cell_angle_gamma                 90.000545
_cell_volume                      2080.60938246

loop_
_atom_site_label
_atom_site_type_symbol
_atom_type_description
_atom_site_fract_x
_atom_site_fract_y
_atom_site_fract_z
_atom_type_partial_charge
O1    O     O_R   0.447130 0.507140 0.597350 -0.546479
O2    O     O_R   0.552870 0.007140 0.402650 -0.533574
O3    O     O_R   0.578910 0.181280 0.586990 -0.531030
O4    O     O_R   0.421090 0.681280 0.413010 -0.537637
C1    C     C_R   0.604424 0.344516 0.607503 0.759011
C2    C     C_R   0.395564 0.844427 0.392520 0.751008
O5    O     O_R   0.449230 0.177860 0.608640 -0.530519
O6    O     O_R   0.550770 0.677860 0.391360 -0.530958
O7    O     O_R   0.422260 0.000770 0.424450 -0.529537
O8    O     O_R   0.577740 0.500770 0.575550 -0.539741
C3    C     C_R   0.432333 0.346377 0.633625 0.772239
C4    C     C_R   0.567896 0.845908 0.366613 0.769296
O9    O     O_3   0.491310 0.336980 0.439550 -0.374641
O10   O     O_3   0.508690 0.836980 0.560450 -0.381634
V1    V     V_3+5 0.501610 0.064760 0.511210 1.510109
V2    V     V_3+5 0.498390 0.564760 0.488790 1.500136
C5    C     C_R   0.616317 0.794253 0.121762 -0.179008
C6    C     C_R   0.383148 0.437110 0.875339 -0.177583
H1    H     H_    0.694457 0.807434 0.993735 0.148757
H2    H     H_    0.305126 0.435306 0.003864 0.148918
H3    H     H_    0.593979 0.764953 0.048505 0.117297
H4    H     H_    0.405288 0.475912 0.947460 0.119054
C7    C     C_R   0.606863 0.850914 0.288743 -0.080588
C8    C     C_R   0.392958 0.358587 0.710769 -0.073738
C9    C     C_R   0.917278 0.840832 0.300619 0.188375
C10   C     C_R   0.082474 0.366431 0.698645 0.188319
C11   C     C_R   0.879643 0.809551 0.372774 -0.138245
C12   C     C_R   0.120009 0.386960 0.625486 -0.139378
C13   C     C_R   0.813176 0.805980 0.351000 -0.134191
C14   C     C_R   0.186452 0.393492 0.647047 -0.133858
C15   C     C_R   0.781526 0.844051 0.257358 0.081813
C16   C     C_R   0.218243 0.367838 0.741783 0.082859
C17   C     C_R   0.818839 0.853036 0.180108 -0.027676
C18   C     C_R   0.180982 0.367807 0.819217 -0.027232
C19   C     C_R   0.713080 0.853079 0.237833 0.053123
C20   C     C_R   0.286714 0.362427 0.761542 0.053118
C21   C     C_R   0.682819 0.822350 0.142307 0.048188
C22   C     C_R   0.316797 0.405400 0.855836 0.047271
C23   C     C_R   0.718826 0.822579 0.067123 -0.166303
C24   C     C_R   0.280824 0.412329 0.931008 -0.168234
C25   C     C_R   0.785148 0.848695 0.083555 0.088657
C26   C     C_R   0.214710 0.381867 0.915473 0.088969
C27   C     C_R   0.673179 0.891332 0.308987 0.023358
C28   C     C_R   0.326804 0.315431 0.691895 0.020937
C29   C     C_R   0.578496 0.798943 0.195374 0.180389
C30   C     C_R   0.421018 0.423786 0.801985 0.171887
C31   C     C_R   0.887493 0.858087 0.204039 -0.090817
C32   C     C_R   0.112324 0.362105 0.795603 -0.089493
H5    H     H_    0.786810 0.764310 0.407859 0.161945
H6    H     H_    0.212652 0.427647 0.588839 0.161790
H7    H     H_    0.901916 0.783923 0.446306 0.128072
H8    H     H_    0.097643 0.402741 0.551232 0.128549
C33   C     C_1   0.166476 0.857361 0.168583 -0.123836
C34   C     C_1   0.833527 0.357303 0.831413 -0.122805
C35   C     C_1   0.218906 0.855039 0.219649 0.049816
C36   C     C_1   0.781095 0.355070 0.780347 0.050907
C37   C     C_1   0.280705 0.853401 0.279537 0.038813
C38   C     C_1   0.719293 0.353565 0.720466 0.040561
C39   C     C_1   0.333125 0.850948 0.330640 -0.150104
C40   C     C_1   0.666867 0.351179 0.669373 -0.146292
O11   O     O_R   0.922300 0.202240 0.924350 -0.521283
O12   O     O_R   0.077700 0.702240 0.075650 -0.526022
O13   O     O_R   0.050780 0.535130 0.891350 -0.545547
O14   O     O_R   0.949220 0.035130 0.108650 -0.532193
C41   C     C_R   0.069903 0.368586 0.868956 0.777316
C42   C     C_R   0.929991 0.868414 0.130898 0.776792
O15   O     O_R   0.921100 0.531560 0.912990 -0.530187
O16   O     O_R   0.078900 0.031560 0.087010 -0.525274
O17   O     O_R   0.947120 0.708470 0.097370 -0.542206
O18   O     O_R   0.052880 0.208470 0.902630 -0.529029
C43   C     C_R   0.895971 0.363582 0.893273 0.744235
C44   C     C_R   0.104032 0.863620 0.106727 0.743603
O19   O     O_3   0.008710 0.375800 0.060400 -0.369835
O20   O     O_3   0.991290 0.875800 0.939600 -0.367752
V3    V     V_3+5 0.998380 0.648080 0.988790 1.504985
V4    V     V_3+5 0.001620 0.148080 0.011210 1.537711
N1    N     N_3   0.510818 0.757796 0.175418 -0.667930
H9    H     H_    0.498087 0.713413 0.104069 0.225562
H10   H     H_    0.485948 0.882831 0.182379 0.212688
N2    N     N_3   0.488674 0.465679 0.820876 -0.681605
H11   H     H_    0.502931 0.494344 0.894051 0.227074
H12   H     H_    0.496138 0.588994 0.783882 0.230936
I1    I     I_    0.705779 0.057465 0.435256 -0.434352
I2    I     I_    0.295018 0.132160 0.571903 -0.435416
N3    N     N_3   0.986283 0.846506 0.324156 -0.675357
H13   H     H_    0.000188 0.849035 0.398887 0.233737
H14   H     H_    0.004276 0.721804 0.299440 0.220079
N4    N     N_3   0.013476 0.359050 0.675425 -0.675283
H15   H     H_    0.999590 0.343918 0.601078 0.234213
H16   H     H_    0.995414 0.488219 0.694357 0.220530
I3    I     I_    0.821800 0.868858 0.950534 -0.398368
I4    I     I_    0.178499 0.365008 0.048965 -0.400235

loop_
_geom_bond_atom_site_label_1
_geom_bond_atom_site_label_2
_ccdc_geom_bond_type
C14   C16   A    
O13   C41   A    
C7    C29   A    
C11   C13   A    
C27   I1    S    
C33   C35   T    
O1    C3    A    
O2    C4    A    
C2    O7    A    
C23   C25   A    
C13   H5    S    
N1    H9    S    
O5    C3    A    
C4    C7    S    
O20   V4    S    
C16   C20   A    
C19   C21   A    
C5    C29   A    
H2    C24   S    
C37   C39   T    
C42   O17   A    
C38   C40   T    
C41   O18   A    
C3    C8    S    
C7    C27   A    
C34   C43   S    
C18   C26   A    
C15   C17   A    
C32   C41   S    
C19   C27   A    
C9    C31   A    
C31   C42   S    
O15   C43   A    
C10   C32   A    
O11   C43   A    
C24   C26   A    
C14   H6    S    
O6    V2    S    
C22   C24   A    
C13   C15   A    
O19   V3    S    
C6    C30   A    
C11   H7    S    
N1    H10   S    
O11   V4    S    
C34   C36   T    
O20   V3    S    
N3    H14   S    
N2    H12   S    
O5    V1    S    
O3    C1    A    
N3    H13   S    
C5    H3    S    
O14   C42   A    
O4    V2    S    
O16   C44   A    
C9    N3    S    
O14   V4    S    
O12   C44   A    
O1    V2    S    
C5    C21   A    
O2    V1    S    
H1    C23   S    
O4    C2    A    
C25   I3    S    
N4    H16   S    
C35   C37   S    
O18   V4    S    
C9    C11   A    
C17   C31   A    
O19   V4    S    
C15   C19   A    
O12   V3    S    
C20   C28   A    
C18   C32   A    
O3    V1    S    
C1    C40   S    
C6    H4    S    
C2    C39   S    
N2    H11   S    
C28   I2    S    
O16   V4    S    
C10   C12   A    
C8    C30   A    
C12   C14   A    
C6    C22   A    
C17   C25   A    
C1    O8    A    
C21   C23   A    
O8    V2    S    
C30   N2    S    
C12   H8    S    
O13   V3    S    
C8    C28   A    
C20   C22   A    
C36   C38   S    
O17   V3    S    
C26   I4    S    
O7    V1    S    
O15   V3    S    
N4    H15   S    
C10   N4    S    
O9    V2    S    
O10   V1    S    
C29   N1    S    
C33   C44   S    
O6    C4    A    
C16   C18   A    
