data_str_m2_o10_o28_f0_pcu.sym.157
_audit_creation_date              2013-03-05T15:41:54-0500
_audit_creation_method            fapswitch 2.2
_symmetry_space_group_name_H-M    P1
_symmetry_Int_Tables_number       1
_space_group_crystal_system       triclinic
_cell_length_a                    23.508949
_cell_length_b                    8.680245
_cell_length_c                    7.607284
_cell_angle_alpha                 102.60128
_cell_angle_beta                  96.409478
_cell_angle_gamma                 95.322935
_cell_volume                      1494.48606944

loop_
_atom_site_label
_atom_site_type_symbol
_atom_site_description
_atom_site_fract_x
_atom_site_fract_y
_atom_site_fract_z
_atom_type_partial_charge
O1    O     O_R   0.504120 0.286130 0.619770 -0.605708
O2    O     O_R   0.495880 0.713870 0.380230 -0.605688
O3    O     O_R   0.493410 0.256770 0.308360 -0.598152
O4    O     O_R   0.506590 0.743230 0.691640 -0.598172
C1    C     C_R   0.497633 0.200176 0.453596 0.873271
C2    C     C_R   0.502366 0.799824 0.546404 0.873274
O5    O     O_R   0.423230 0.514630 0.655730 -0.602634
O6    O     O_R   0.576770 0.485370 0.344270 -0.602583
O7    O     O_R   0.412530 0.485280 0.344320 -0.597347
O8    O     O_R   0.587470 0.514720 0.655680 -0.597376
C3    C     C_R   0.391120 0.499637 0.498844 0.781453
C4    C     C_R   0.608879 0.500364 0.501164 0.781439
Cu1   Cu    Cu3+1 0.506340 0.517380 0.684380 0.918371
Cu2   Cu    Cu3+1 0.493660 0.482620 0.315620 0.918402
C5    C     C_R   0.887140 0.635770 0.570477 0.561386
C6    C     C_R   0.112856 0.364235 0.429827 0.561349
N1    N     N_R   0.851880 0.496110 0.506897 -0.462104
N2    N     N_R   0.148119 0.503896 0.493394 -0.462073
C7    C     C_R   0.872965 0.356397 0.441054 0.528380
C8    C     C_R   0.127034 0.643608 0.559256 0.528392
C9    C     C_R   0.933190 0.351233 0.444934 -0.090995
C10   C     C_R   0.066809 0.648768 0.555402 -0.090974
C11   C     C_R   0.969947 0.497649 0.502928 -0.007122
C12   C     C_R   0.030052 0.502353 0.497411 -0.007130
C13   C     C_R   0.946657 0.639901 0.566761 -0.035997
C14   C     C_R   0.053341 0.360102 0.433570 -0.035992
C15   C     C_R   0.958038 0.207871 0.388457 -0.011203
C16   C     C_R   0.041961 0.792130 0.611891 -0.011197
C17   C     C_R   0.017319 0.215624 0.378971 -0.102584
C18   C     C_R   0.982679 0.784377 0.621373 -0.102576
O9    O     O_2   0.864359 0.770818 0.634324 -0.532362
O10   O     O_2   0.135635 0.229182 0.365976 -0.532386
O11   O     O_2   0.835317 0.225201 0.368065 -0.550456
O12   O     O_2   0.164680 0.774813 0.632213 -0.550511
H1    H     H_    0.035861 0.106149 0.335074 0.202204
H2    H     H_    0.964137 0.893851 0.665272 0.202193
C19   C     C_R   0.233474 0.503591 0.335246 -0.099553
C20   C     C_R   0.766468 0.495604 0.664732 -0.099667
H3    H     H_    0.206442 0.505249 0.210842 0.143134
H4    H     H_    0.793457 0.493306 0.788997 0.143011
C21   C     C_R   0.292796 0.502808 0.336294 -0.212169
C22   C     C_R   0.707145 0.496406 0.663613 -0.212112
H5    H     H_    0.310664 0.505265 0.211853 0.148386
H6    H     H_    0.689226 0.493320 0.787856 0.148436
C23   C     C_R   0.328381 0.500703 0.496950 -0.031688
C24   C     C_R   0.671617 0.499303 0.503118 -0.031615
C25   C     C_R   0.303455 0.500731 0.656710 -0.223832
C26   C     C_R   0.696600 0.500074 0.343598 -0.223889
H7    H     H_    0.329670 0.499868 0.782713 0.156225
H8    H     H_    0.670426 0.501574 0.217738 0.156154
C27   C     C_R   0.244154 0.501784 0.655372 -0.095535
C28   C     C_R   0.755903 0.499044 0.345016 -0.095562
H9    H     H_    0.225389 0.501383 0.779018 0.139677
H10   H     H_    0.774716 0.500085 0.221562 0.139617
C29   C     C_R   0.209069 0.503106 0.494680 0.365116
C30   C     C_R   0.790930 0.496907 0.505541 0.365333
C31   C     C_2   0.494666 0.031527 0.428573 -0.363965
C32   C     C_2   0.505334 0.968473 0.571427 -0.363976
H11   H     H_    0.482843 0.958958 0.291571 0.165285
H12   H     H_    0.517157 0.041042 0.708429 0.165285
N3    N     N_2   0.484110 0.456420 0.038520 -0.105281
N4    N     N_2   0.515890 0.543580 0.961480 -0.105277
C33   C     C_2   0.925176 0.046813 0.350865 0.428699
H13   H     H_    0.889977 0.023128 0.425488 0.148393
O13   O     O_2   0.938553 0.936513 0.239746 -0.535665
C34   C     C_2   0.074822 0.953190 0.649497 0.428704
H14   H     H_    0.110015 0.976890 0.574857 0.148412
O14   O     O_2   0.061450 0.063475 0.760650 -0.535658
C35   C     C_3   0.451360 0.308829 0.929945 -0.059383
C36   C     C_3   0.394505 0.265695 0.999070 -0.404377
C37   C     C_3   0.357506 0.125852 0.864662 -0.886705
H15   H     H_    0.345409 0.157474 0.732705 0.260745
H16   H     H_    0.381367 0.020123 0.841665 0.261707
H17   H     H_    0.317366 0.095159 0.920421 0.278780
H18   H     H_    0.402168 0.229874 0.129475 0.262009
H19   H     H_    0.369717 0.369367 0.016052 0.221725
H20   H     H_    0.436698 0.318855 0.793816 0.219475
H21   H     H_    0.478374 0.210474 0.927462 0.150435
C38   C     C_3   0.548647 0.691164 0.070049 -0.059401
C39   C     C_3   0.605496 0.734306 0.000877 -0.404303
C40   C     C_3   0.642518 0.874081 0.135323 -0.886826
H22   H     H_    0.618661 0.979817 0.158469 0.261748
H23   H     H_    0.654639 0.842363 0.267212 0.260697
H24   H     H_    0.682643 0.904815 0.079513 0.278817
H25   H     H_    0.630278 0.630620 0.983746 0.221796
H26   H     H_    0.597820 0.770210 0.870525 0.261995
H27   H     H_    0.521633 0.789523 0.072558 0.150411
H28   H     H_    0.563312 0.681139 0.206179 0.219438

loop_
_geom_bond_atom_site_label_1
_geom_bond_atom_site_label_2
_geom_bond_distance
_ccdc_geom_bond_type
C34   O14   1.221572 D    
C33   O13   1.221562 D    
C15   C17   1.399704 A    
C2    C32   1.428513 S    
C35   H20   1.078887 S    
C38   H27   1.108519 S    
C40   H22   1.111290 S    
C25   H7    1.082025 S    
O5    C3    1.313018 A    
O1    C1    1.304710 A    
C7    C9    1.417911 A    
C12   C14   1.408347 A    
C20   C22   1.394389 A    
C35   C36   1.534013 S    
C31   H11   1.084737 S    
C32   H12   1.084736 S    
C22   C24   1.406599 A    
O4    Cu1   1.948571 S    
C39   H26   1.103788 S    
Cu1   N4    2.054601 S    
C11   C12   1.415390 A    
C36   C37   1.529541 S    
C27   C29   1.399117 A    
C8    O12   1.347549 S    
C26   H8    1.082084 S    
C34   H14   1.083283 S    
C9    C15   1.425487 A    
C10   C16   1.425496 A    
Cu1   Cu2   2.734352 S    
C21   H5    1.081196 S    
C35   H21   1.108518 S    
O2    C2    1.304710 A    
C22   H6    1.081352 S    
C38   H28   1.078900 S    
C40   H23   1.111255 S    
C28   H10   1.083227 S    
C23   C25   1.406892 A    
C6    C14   1.399899 A    
C24   C26   1.406959 A    
N4    C38   1.459312 S    
O4    C2    1.301254 A    
C7    O11   1.347550 S    
C37   H16   1.111274 S    
C25   C27   1.393883 A    
Cu2   N3    2.054601 S    
C38   C39   1.534082 S    
C27   H9    1.083130 S    
C16   C34   1.486241 S    
O7    Cu2   1.945475 S    
C39   H25   1.108824 S    
C26   C28   1.393884 A    
O6    C4    1.313056 A    
O7    C3    1.315487 A    
N1    C30   1.432418 S    
O3    Cu2   1.948571 S    
O8    C4    1.315416 A    
N2    C29   1.432473 S    
C4    C24   1.474221 S    
C8    C10   1.417920 A    
C9    C11   1.422338 A    
C36   H19   1.108804 S    
C10   C12   1.422332 A    
C3    C23   1.474288 S    
O1    Cu1   1.953953 S    
C40   H24   1.110589 S    
N3    C35   1.459303 S    
C13   C18   1.399839 A    
C5    N1    1.363416 A    
O6    Cu2   1.938946 S    
C39   C40   1.529541 S    
O3    C1    1.301254 A    
O8    Cu1   1.945475 S    
C37   H17   1.110571 S    
C5    O9    1.350196 S    
C18   H2    1.084167 S    
C6    O10   1.350205 S    
C17   H1    1.084166 S    
C1    C31   1.428513 S    
C16   C18   1.399705 A    
C37   H15   1.111248 S    
C19   H3    1.083073 S    
C20   H4    1.083168 S    
C31   C32   1.329503 D    
N1    C7    1.367207 A    
N2    C8    1.367233 A    
C11   C13   1.408351 A    
C19   C21   1.394387 A    
N3    N4    1.288566 D    
O2    Cu2   1.953953 S    
C5    C13   1.399898 A    
C33   H13   1.083280 S    
C19   C29   1.399058 A    
O5    Cu1   1.938946 S    
C20   C30   1.399162 A    
C14   C17   1.399847 A    
C6    N2    1.363440 A    
C36   H18   1.103786 S    
C21   C23   1.406466 A    
C15   C33   1.486243 S    
C28   C30   1.399226 A    
