data_str_m2_o5_o17_f0_pcu.sym.35
_audit_creation_date              2013-03-05T16:34:52-0500
_audit_creation_method            fapswitch 2.2
_symmetry_space_group_name_H-M    P1
_symmetry_Int_Tables_number       1
_space_group_crystal_system       triclinic
_cell_length_a                    15.044459
_cell_length_b                    9.277675
_cell_length_c                    7.785374
_cell_angle_alpha                 90.017254
_cell_angle_beta                  89.75832
_cell_angle_gamma                 89.315005
_cell_volume                      1086.57643472

loop_
_atom_site_label
_atom_site_type_symbol
_atom_site_description
_atom_site_fract_x
_atom_site_fract_y
_atom_site_fract_z
_atom_type_partial_charge
O1    O     O_R   0.500000 0.288390 0.642760 -0.565375
O2    O     O_R   0.500000 0.711610 0.357240 -0.564214
O3    O     O_R   0.500000 0.711610 0.642760 -0.577959
O4    O     O_R   0.500000 0.288390 0.357240 -0.578077
C1    C     C_R   0.500209 0.219731 0.499977 0.881851
C2    C     C_R   0.499799 0.780271 0.500030 0.886613
O5    O     O_R   0.370260 0.500000 0.642800 -0.571301
O6    O     O_R   0.629740 0.500000 0.357200 -0.574536
O7    O     O_R   0.629740 0.500000 0.642800 -0.559531
O8    O     O_R   0.370260 0.500000 0.357200 -0.563589
C3    C     C_R   0.328605 0.502233 0.500288 0.899017
C4    C     C_R   0.671427 0.498158 0.499415 0.894981
Cu1   Cu    Cu3+1 0.500000 0.500000 0.669080 1.093471
Cu2   Cu    Cu3+1 0.500000 0.500000 0.330920 1.092308
N1    N     N_1   0.500000 0.500000 0.076820 -0.027791
N2    N     N_1   0.500000 0.500000 0.923180 -0.027751
C5    C     C_R   0.810984 0.627517 0.451760 0.247590
C6    C     C_R   0.187652 0.372426 0.506215 0.244284
C7    C     C_R   0.815480 0.370267 0.519070 0.185141
C8    C     C_R   0.185886 0.634361 0.476890 0.185162
C9    C     C_R   0.767804 0.499457 0.495316 -0.198507
C10   C     C_R   0.232233 0.503674 0.499822 -0.191888
C11   C     C_R   0.908110 0.368034 0.489652 -0.061326
C12   C     C_R   0.091885 0.634514 0.476479 -0.079834
C13   C     C_R   0.904581 0.628212 0.444375 -0.036519
C14   C     C_R   0.095117 0.371072 0.482833 -0.033925
C15   C     C_R   0.952964 0.499765 0.474224 -0.122982
C16   C     C_R   0.046858 0.501820 0.479494 -0.111025
C17   C     C_R   0.957143 0.239694 0.460282 0.323431
C18   C     C_R   0.040871 0.761606 0.456401 0.316002
C19   C     C_R   0.952118 0.752392 0.404962 0.475678
C20   C     C_R   0.050316 0.244203 0.443792 0.448130
C21   C     C_1   0.500083 0.065000 0.499977 -0.057350
C22   C     C_1   0.499919 0.935010 0.500044 -0.054688
O9    O     O_3   0.915843 0.111974 0.428161 -0.629322
H1    H     H_    0.866034 0.133010 0.348532 0.369582
O10   O     O_3   0.071087 0.894262 0.504394 -0.620753
H2    H     H_    0.108864 0.880578 0.607402 0.373204
O11   O     O_3   0.914171 0.856531 0.302569 -0.630845
H3    H     H_    0.962520 0.905462 0.239503 0.346248
O12   O     O_3   0.097044 0.136647 0.359887 -0.605820
H4    H     H_    0.056770 0.089281 0.277745 0.358199
Br1   Br    Br    0.740178 0.802981 0.432750 -0.374257
Br2   Br    Br    0.254270 0.197929 0.558546 -0.381610
Br3   Br    Br    0.753275 0.204872 0.610129 -0.406812
Br4   Br    Br    0.254068 0.803974 0.419116 -0.413303

loop_
_geom_bond_atom_site_label_1
_geom_bond_atom_site_label_2
_geom_bond_distance
_ccdc_geom_bond_type
C13   C19   1.396787 A    
C7    C11   1.411206 A    
C20   O12   1.376814 S    
C5    Br1   1.940802 S    
C14   C20   1.397353 A    
O10   H2    0.992192 S    
C6    Br2   1.938147 S    
C13   C15   1.408831 A    
O12   H4    0.989271 S    
C17   O9    1.367995 S    
C3    C10   1.449791 S    
C14   C16   1.406548 A    
O9    H1    0.992191 S    
O3    Cu1   1.973975 S    
O6    C4    1.274805 A    
O3    C2    1.281008 A    
C5    C13   1.409142 A    
C7    Br3   1.939693 S    
C21   C22   1.206032 T    
Cu1   Cu2   2.632703 S    
O5    C3    1.276606 A    
O2    C2    1.281058 A    
O1    C1    1.281001 A    
C11   C17   1.411245 A    
C7    C9    1.402131 A    
C8    C10   1.403252 A    
C17   C20   1.408196 A    
C11   C15   1.408047 A    
C1    C21   1.435568 S    
O4    Cu2   1.973976 S    
C18   C19   1.399199 A    
O2    Cu2   1.973852 S    
O7    C4    1.278119 A    
C12   C18   1.408289 A    
O1    Cu1   1.973853 S    
O8    C3    1.275894 A    
N1    N2    1.196146 T    
C12   C16   1.412381 A    
O5    Cu1   1.963422 S    
O8    Cu2   1.961705 S    
Cu1   N2    1.978263 S    
O11   H3    0.990590 S    
O7    Cu1   1.961704 S    
Cu2   N1    1.978263 S    
O6    Cu2   1.963420 S    
C6    C10   1.397975 A    
C4    C9    1.450348 S    
C8    C12   1.414194 A    
C5    C9    1.401931 A    
C2    C22   1.435646 S    
C18   O10   1.369485 S    
C19   O11   1.373316 S    
O4    C1    1.281049 A    
C15   C16   1.413711 A    
C8    Br4   1.940596 S    
C6    C14   1.404958 A    
