data_str_m2_o9_o18_f0_pcu.sym.34
_audit_creation_date              2012-10-26T21:10:48-0400
_audit_creation_method            fapswitch 2.2
_symmetry_space_group_name_H-M    P1
_symmetry_Int_Tables_number       1
_space_group_crystal_system       triclinic
_cell_length_a                    10.817537
_cell_length_b                    14.681339
_cell_length_c                    14.75638
_cell_angle_alpha                 65.101999
_cell_angle_beta                  103.951403
_cell_angle_gamma                 103.124664
_cell_volume                      2041.93229798

loop_
_atom_site_label
_atom_site_type_symbol
_atom_type_description
_atom_site_fract_x
_atom_site_fract_y
_atom_site_fract_z
_atom_type_partial_charge
C1    C     C_R   0.477439 0.119631 0.312300 0.540222
C2    C     C_R   0.628073 0.784554 0.972072 0.143072
C3    C     C_R   0.395115 0.149495 0.130422 -0.114804
C4    C     C_R   0.604809 0.850495 0.869582 -0.114780
C5    C     C_R   0.498023 0.290541 0.178129 -0.153179
C6    C     C_R   0.501833 0.709466 0.821865 -0.153176
C7    C     C_R   0.473186 0.359866 0.077905 0.005882
C8    C     C_R   0.526584 0.640136 0.922094 0.005894
C9    C     C_R   0.416011 0.320950 0.001530 0.055038
C10   C     C_R   0.583743 0.679048 0.998477 0.055008
C11   C     C_R   0.506607 0.466656 0.051797 0.035418
C12   C     C_R   0.522552 0.880368 0.687698 0.540229
C13   C     C_R   0.493110 0.533346 0.948197 0.035423
C14   C     C_R   0.449109 0.490969 0.873901 -0.145773
C15   C     C_R   0.550558 0.509032 0.126094 -0.145759
C16   C     C_R   0.262762 0.998867 0.502361 0.546752
C17   C     C_R   0.737237 0.001136 0.497634 0.546754
C18   C     C_R   0.408591 0.387862 0.900011 -0.136855
C19   C     C_R   0.591073 0.612137 0.099992 -0.136868
C20   C     C_R   0.709658 0.282302 0.672707 -0.165118
C21   C     C_R   0.290344 0.717699 0.327291 -0.165127
C22   C     C_R   0.677967 0.201586 0.641493 0.039450
C23   C     C_R   0.870740 0.001997 0.495335 -0.001672
C24   C     C_R   0.322031 0.798413 0.358508 0.039444
C25   C     C_R   0.519695 0.285909 0.507841 0.045561
C26   C     C_R   0.480309 0.714094 0.492156 0.045562
C27   C     C_R   0.548060 0.371286 0.535176 0.000927
C28   C     C_R   0.451948 0.628718 0.464819 0.000923
C29   C     C_R   0.644741 0.367048 0.620294 0.036813
C30   C     C_R   0.355267 0.632956 0.379701 0.036805
C31   C     C_R   0.483528 0.459189 0.482639 0.013216
C32   C     C_R   0.516484 0.540816 0.517354 0.013216
C33   C     C_R   0.612470 0.531633 0.603462 -0.149544
C34   C     C_R   0.129258 0.998013 0.504649 -0.001672
C35   C     C_R   0.387544 0.468374 0.396529 -0.149561
C36   C     C_R   0.675325 0.446741 0.653305 -0.133411
C37   C     C_R   0.324688 0.553265 0.346687 -0.133421
C38   C     C_R   0.368450 0.065200 0.770861 -0.097368
C39   C     C_R   0.631488 0.934830 0.229141 -0.097273
C40   C     C_R   0.272342 0.022887 0.711627 -0.057297
C41   C     C_R   0.727627 0.977141 0.288360 -0.057292
C42   C     C_R   0.190179 0.084376 0.630524 0.046639
C43   C     C_R   0.809810 0.915651 0.369445 0.046622
C44   C     C_R   0.202707 0.187810 0.612166 -0.100837
C45   C     C_R   0.905376 0.958167 0.437751 -0.032290
C46   C     C_R   0.797278 0.812220 0.387788 -0.100840
C47   C     C_R   0.298082 0.229534 0.672311 -0.114771
C48   C     C_R   0.701871 0.770498 0.327658 -0.114813
C49   C     C_R   0.381678 0.168519 0.750897 -0.086009
C50   C     C_R   0.618248 0.831511 0.249100 -0.085991
C51   C     C_R   0.965244 0.044072 0.555878 -0.154101
C52   C     C_R   0.034753 0.955941 0.444101 -0.154097
C53   C     C_3   0.259349 0.070738 0.977858 -0.322625
C54   C     C_3   0.740759 0.929236 0.022114 -0.322588
C55   C     C_R   0.094620 0.041850 0.562225 -0.032296
C56   C     C_R   0.458262 0.186929 0.204793 -0.041492
C57   C     C_R   0.541671 0.813069 0.795205 -0.041494
C58   C     C_R   0.371756 0.215441 0.027940 0.143066
Cu1   Cu    Cu3+1 0.466270 0.918260 0.475690 0.930561
Cu2   Cu    Cu3+1 0.533730 0.081740 0.524310 0.930567
H1    H     H_    0.456322 0.201225 0.796621 0.129513
H2    H     H_    0.736152 0.057124 0.272695 0.097654
H3    H     H_    0.140509 0.236448 0.550004 0.106121
H4    H     H_    0.859493 0.763580 0.449932 0.106122
H5    H     H_    0.938134 0.076148 0.601188 0.125934
H6    H     H_    0.061863 0.923866 0.398792 0.125927
H7    H     H_    0.375348 0.360941 0.839114 0.119609
H8    H     H_    0.624259 0.639054 0.160893 0.119525
H9    H     H_    0.448093 0.685005 0.762612 0.129330
H10   H     H_    0.551777 0.315015 0.237370 0.129329
H11   H     H_    0.637552 0.931026 0.846294 0.120832
H12   H     H_    0.543575 0.798805 0.203393 0.129505
H13   H     H_    0.362430 0.068956 0.153711 0.120825
H14   H     H_    0.232680 0.222393 0.900445 0.245199
H15   H     H_    0.210284 0.056900 0.908585 0.152008
H16   H     H_    0.189746 0.041909 0.031555 0.131628
H17   H     H_    0.343751 0.029015 0.010928 0.144969
H18   H     H_    0.766927 0.777499 0.099712 0.245202
H19   H     H_    0.789805 0.943093 0.091384 0.151961
H20   H     H_    0.656526 0.971143 0.988908 0.144923
H21   H     H_    0.810473 0.957860 0.968524 0.131657
H22   H     H_    0.446445 0.535086 0.794001 0.103142
H23   H     H_    0.554916 0.719064 0.553634 0.120672
H24   H     H_    0.553165 0.464910 0.205990 0.103144
H25   H     H_    0.748555 0.443280 0.718965 0.110428
H26   H     H_    0.251459 0.556726 0.281026 0.110436
H27   H     H_    0.273170 0.864449 0.317388 0.114950
H28   H     H_    0.726826 0.135548 0.682614 0.114949
H29   H     H_    0.641444 0.588879 0.634916 0.095350
H30   H     H_    0.358573 0.411129 0.365073 0.095338
H31   H     H_    0.308346 0.309492 0.657136 0.112375
H32   H     H_    0.691602 0.690540 0.342826 0.112360
H33   H     H_    0.445090 0.280939 0.446363 0.120665
H34   H     H_    0.783760 0.278124 0.737990 0.086443
H35   H     H_    0.216242 0.721877 0.262009 0.086452
H36   H     H_    0.432758 0.017928 0.832193 0.098627
H37   H     H_    0.567160 0.982103 0.167831 0.098614
H38   H     H_    0.263821 0.942903 0.727301 0.097668
N1    N     N_R   0.584450 0.204570 0.560790 -0.227266
N2    N     N_R   0.415550 0.795430 0.439210 -0.227268
N3    N     N_2   0.300674 0.178509 0.951541 -0.530047
N4    N     N_2   0.699116 0.821489 0.048483 -0.530008
O1    O     O_R   0.455540 0.022090 0.338120 -0.509796
O2    O     O_R   0.544460 0.977910 0.661880 -0.509792
O3    O     O_R   0.512510 0.160150 0.379180 -0.510723
O4    O     O_R   0.487490 0.839850 0.620820 -0.510726
O5    O     O_R   0.291160 0.930970 0.479480 -0.510789
O6    O     O_R   0.708840 0.069030 0.520520 -0.510788
O7    O     O_R   0.348130 0.069020 0.520540 -0.488529
O8    O     O_R   0.651870 0.930980 0.479460 -0.488527

loop_
_geom_bond_atom_site_label_1
_geom_bond_atom_site_label_2
_ccdc_geom_bond_type
C6    H9    S    
C38   C40   A    
C25   H33   S    
C26   H23   S    
C23   C45   A    
C27   C29   A    
C14   C18   A    
C5    C56   A    
C2    C4    A    
Cu2   N1    S    
C17   O8    A    
Cu1   O8    S    
C47   C49   A    
C38   C49   A    
C7    C11   A    
C29   C36   A    
C17   C23   S    
C35   C37   A    
C1    C56   S    
C12   O2    A    
C40   H38   S    
C39   H37   S    
H18   N4    S    
C2    N4    S    
C33   C36   A    
C9    C58   A    
C51   H5    S    
C50   H12   S    
Cu2   O7    S    
C16   O5    A    
C16   C34   S    
C15   C19   A    
C11   C15   A    
C25   N1    A    
C53   N3    S    
C4    C57   A    
C22   H28   S    
C1    O1    A    
Cu2   O6    S    
C44   C47   A    
C40   C42   A    
Cu1   Cu2   S    
C13   C14   A    
Cu1   N2    S    
C41   C43   A    
C6    C57   A    
C53   H15   S    
C42   C44   A    
C41   H2    S    
C26   C28   A    
C43   C46   A    
C1    O3    A    
C16   O7    A    
C54   H20   S    
C20   C29   A    
C44   H3    S    
C46   C48   A    
Cu1   O4    S    
C49   H1    S    
C27   C31   A    
C37   H26   S    
C28   C32   A    
C39   C41   A    
C17   O6    A    
C5    C7    A    
C6    C8    A    
C21   H35   S    
C45   C52   A    
C18   H7    S    
Cu1   O5    S    
C30   C37   A    
C46   H4    S    
C53   H17   S    
C35   H30   S    
C5    H10   S    
C33   H29   S    
C42   C55   S    
C3    C56   A    
C23   C51   A    
C31   C32   A    
C10   C19   A    
C19   H8    S    
C58   N3    S    
C43   C45   S    
H14   N3    S    
C12   C57   S    
C20   C22   A    
C31   C35   A    
C53   H16   S    
C14   H22   S    
C2    C10   A    
C52   H6    S    
C54   H19   S    
C7    C9    A    
C20   H34   S    
C22   N1    A    
C24   N2    A    
C47   H31   S    
C54   N4    S    
C15   H24   S    
C36   H25   S    
C25   C27   A    
C21   C30   A    
C34   C52   A    
Cu1   O1    S    
C32   C33   A    
C28   C30   A    
C12   O4    A    
C11   C13   A    
C48   C50   A    
C51   C55   A    
C4    H11   S    
C8    C13   A    
C3    H13   S    
C24   H27   S    
C3    C58   A    
C9    C18   A    
C34   C55   A    
C39   C50   A    
C8    C10   A    
C48   H32   S    
C21   C24   A    
C38   H36   S    
Cu2   O2    S    
C54   H21   S    
Cu2   O3    S    
C26   N2    A    
