data_str_m3_o10_o17_f0_pcu.sym.19
_audit_creation_date              2012-12-10T16:52:06-0500
_audit_creation_method            fapswitch 2.2
_symmetry_space_group_name_H-M    P1
_symmetry_Int_Tables_number       1
_space_group_crystal_system       triclinic
_cell_length_a                    7.765902
_cell_length_b                    8.619027
_cell_length_c                    14.852098
_cell_angle_alpha                 91.08786
_cell_angle_beta                  86.085011
_cell_angle_gamma                 93.539429
_cell_volume                      989.797498255

loop_
_atom_site_label
_atom_site_type_symbol
_atom_type_description
_atom_site_fract_x
_atom_site_fract_y
_atom_site_fract_z
_atom_type_partial_charge
C1    C     C_R   0.545302 0.794276 0.497678 0.865969
C2    C     C_R   0.551596 0.636999 0.812858 -0.256487
C3    C     C_R   0.492203 0.501196 0.232262 -0.027561
C4    C     C_R   0.507797 0.498804 0.767738 -0.027561
C5    C     C_R   0.537273 0.639277 0.187150 -0.244907
C6    C     C_R   0.462726 0.360722 0.812850 -0.244907
C7    C     C_R   0.539872 0.640252 0.093874 0.122598
C8    C     C_R   0.460128 0.359748 0.906126 0.122598
C9    C     C_R   0.497733 0.500379 0.046894 0.056913
C10   C     C_R   0.502267 0.499621 0.953106 0.056913
C11   C     C_R   0.451569 0.361165 0.093812 0.126116
C12   C     C_R   0.454698 0.205724 0.502322 0.865969
C13   C     C_R   0.548431 0.638834 0.906188 0.126116
C14   C     C_R   0.584916 0.777786 0.046954 -0.212890
C15   C     C_R   0.415084 0.222214 0.953046 -0.212891
C16   C     C_R   0.589111 0.777094 0.953226 -0.212530
C17   C     C_R   0.410889 0.222906 0.046774 -0.212530
C18   C     C_2   0.569569 0.956664 0.496432 0.265172
C19   C     C_2   0.430431 0.043336 0.503567 0.265172
C20   C     C_R   0.502505 0.499968 0.672754 0.864392
C21   C     C_R   0.497495 0.500032 0.327246 0.864392
C22   C     C_R   0.448404 0.363001 0.187142 -0.256487
F1    F     F_    0.736599 0.016678 0.487944 -0.625492
F2    F     F_    0.263400 0.983321 0.512056 -0.625492
H1    H     H_    0.414787 0.257431 0.224767 0.136267
H2    H     H_    0.986180 0.617263 0.567764 0.216985
H3    H     H_    0.585213 0.742569 0.775233 0.136267
H4    H     H_    0.571038 0.744698 0.224808 0.138052
H5    H     H_    0.428962 0.255302 0.775192 0.138052
H6    H     H_    0.616978 0.885399 0.082690 0.153253
H7    H     H_    0.383022 0.114601 0.917310 0.153253
H8    H     H_    0.623997 0.884249 0.917575 0.153862
H9    H     H_    0.376003 0.115751 0.082424 0.153862
H10   H     H_    0.013820 0.382737 0.432236 0.216985
N1    N     N_2   0.950330 0.457950 0.475660 -0.146080
N2    N     N_2   0.049670 0.542050 0.524340 -0.146080
O1    O     O_R   0.389250 0.738570 0.505970 -0.572189
O2    O     O_R   0.610750 0.261430 0.494030 -0.572189
O3    O     O_R   0.678390 0.711620 0.490370 -0.585459
O4    O     O_R   0.321610 0.288380 0.509630 -0.585459
O5    O     O_R   0.355420 0.513510 0.639950 -0.612944
O6    O     O_R   0.644580 0.486490 0.360050 -0.612944
O7    O     O_R   0.644560 0.486560 0.624350 -0.626322
O8    O     O_R   0.355440 0.513440 0.375650 -0.626322
Zn1   Zn    Zn3+2 0.306940 0.517990 0.510420 1.023283
Zn2   Zn    Zn3+2 0.693060 0.482010 0.489580 1.023283

loop_
_geom_bond_atom_site_label_1
_geom_bond_atom_site_label_2
_ccdc_geom_bond_type
C12   O4    A    
C2    C4    A    
C15   H7    S    
C2    H3    S    
C16   H8    S    
C21   O8    A    
C9    C10   A    
C11   C22   A    
N1    N2    D    
C1    O1    A    
C6    H5    S    
C20   O5    A    
N2    Zn1   S    
C9    C11   A    
C1    C18   S    
C17   H9    S    
C14   H6    S    
O3    Zn2   S    
C12   C19   S    
C4    C6    A    
C18   C19   D    
C8    C15   A    
C12   O2    A    
O4    Zn1   S    
O7    Zn2   S    
C14   C16   A    
O2    Zn2   S    
C3    C21   S    
C1    O3    A    
O1    Zn1   S    
C18   F1    S    
C5    H4    S    
C7    C9    A    
C20   O7    A    
O8    Zn1   S    
C8    C10   A    
H10   N1    S    
O6    Zn2   S    
C13   C16   A    
H2    N2    S    
C5    C7    A    
C2    C13   A    
O5    Zn1   S    
C11   C17   A    
C3    C22   A    
C6    C8    A    
C15   C17   A    
N1    Zn2   S    
C19   F2    S    
C10   C13   A    
C7    C14   A    
C21   O6    A    
C3    C5    A    
C22   H1    S    
C4    C20   S    
