data_str_m3_o14_o14_f0_pcu.sym.85
_audit_creation_date              2012-12-10T17:41:04-0500
_audit_creation_method            fapswitch 2.2
_symmetry_space_group_name_H-M    P1
_symmetry_Int_Tables_number       1
_space_group_crystal_system       triclinic
_cell_length_a                    14.941277
_cell_length_b                    15.176321
_cell_length_c                    9.939463
_cell_angle_alpha                 90.43974
_cell_angle_beta                  89.943894
_cell_angle_gamma                 90.044763
_cell_volume                      2253.74104099

loop_
_atom_site_label
_atom_site_type_symbol
_atom_type_description
_atom_site_fract_x
_atom_site_fract_y
_atom_site_fract_z
_atom_type_partial_charge
C1    C     C_R   0.382239 0.878490 0.499649 0.846020
C2    C     C_R   0.678058 0.257247 0.572920 -0.195922
C3    C     C_R   0.183033 0.247381 0.417794 -0.187103
C4    C     C_R   0.178051 0.757255 0.572902 -0.195919
C5    C     C_R   0.693948 0.822148 0.497897 -0.092963
C6    C     C_R   0.692551 0.179276 0.501800 -0.094332
C7    C     C_R   0.193946 0.322146 0.497898 -0.092957
C8    C     C_R   0.192549 0.679278 0.501799 -0.094324
C9    C     C_R   0.336407 0.999696 0.139864 -0.099955
C10   C     C_R   0.836407 0.499696 0.139864 -0.099958
C11   C     C_R   0.255830 0.000031 0.069970 -0.185524
C12   C     C_R   0.382764 0.122047 0.500554 0.847058
C13   C     C_R   0.755830 0.500030 0.069970 -0.185523
C14   C     C_R   0.255818 0.000490 0.930753 -0.191405
C15   C     C_R   0.755818 0.500490 0.930753 -0.191407
C16   C     C_R   0.336383 0.000600 0.860598 -0.105358
C17   C     C_R   0.836383 0.500600 0.860598 -0.105362
C18   C     C_R   0.419418 0.000246 0.927908 0.141798
C19   C     C_R   0.919418 0.500246 0.927908 0.141799
C20   C     C_R   0.419445 0.000021 0.072317 0.048333
C21   C     C_R   0.919445 0.500021 0.072317 0.048333
C22   C     C_R   0.577102 0.999684 0.071188 0.658155
C23   C     C_R   0.882240 0.378490 0.499649 0.846022
C24   C     C_R   0.077102 0.499685 0.071188 0.658155
C25   C     C_R   0.621483 0.117881 0.500375 0.833608
C26   C     C_R   0.622117 0.882765 0.499515 0.837353
C27   C     C_R   0.121482 0.617882 0.500374 0.833609
C28   C     C_R   0.122116 0.382764 0.499515 0.837354
C29   C     C_R   0.576988 0.999687 0.928266 -0.212812
C30   C     C_R   0.076988 0.499687 0.928266 -0.212814
C31   C     C_R   0.416197 0.284440 0.652532 -0.184489
C32   C     C_R   0.420962 0.711651 0.365302 -0.180213
C33   C     C_R   0.916192 0.784436 0.652549 -0.184494
C34   C     C_R   0.882764 0.622047 0.500554 0.847059
C35   C     C_R   0.920955 0.211657 0.365271 -0.180219
C36   C     C_R   0.430272 0.363269 0.722354 -0.144913
C37   C     C_R   0.437762 0.630383 0.303893 -0.164826
C38   C     C_R   0.930264 0.863264 0.722377 -0.144913
C39   C     C_R   0.937751 0.130392 0.303852 -0.164832
C40   C     C_R   0.866403 0.929766 0.717791 -0.113672
C41   C     C_R   0.873532 0.064040 0.308171 -0.092021
C42   C     C_R   0.366409 0.429771 0.717770 -0.113666
C43   C     C_R   0.373541 0.564032 0.308208 -0.092021
C44   C     C_R   0.787987 0.917381 0.644214 -0.189941
C45   C     C_R   0.246435 0.182792 0.419780 -0.213982
C46   C     C_R   0.792110 0.079016 0.373000 -0.116881
C47   C     C_R   0.287990 0.417384 0.644201 -0.189947
C48   C     C_R   0.292114 0.579012 0.373022 -0.116891
C49   C     C_R   0.771976 0.837168 0.574541 0.092476
C50   C     C_R   0.773571 0.161557 0.434079 0.068136
C51   C     C_R   0.271977 0.337169 0.574534 0.092472
C52   C     C_R   0.273573 0.661555 0.434092 0.068138
C53   C     C_R   0.336983 0.270516 0.577468 0.103467
C54   C     C_R   0.338789 0.728026 0.431463 0.101596
C55   C     C_R   0.836981 0.770515 0.577477 0.103467
C56   C     C_R   0.241888 0.821666 0.571636 -0.213669
C57   C     C_R   0.838786 0.228028 0.431449 0.101597
C58   C     C_R   0.321376 0.193002 0.501202 -0.093960
C59   C     C_R   0.320330 0.808109 0.499200 -0.085108
C60   C     C_R   0.821377 0.693003 0.501203 -0.093964
C61   C     C_R   0.820331 0.308107 0.499200 -0.085114
C62   C     C_R   0.746440 0.682796 0.419772 -0.213982
C63   C     C_R   0.741895 0.321659 0.571654 -0.213666
C64   C     C_R   0.683038 0.747385 0.417785 -0.187105
F1    F     F_    0.656247 0.999156 0.137507 -0.665993
F2    F     F_    0.156247 0.499157 0.137507 -0.665985
H1    H     H_    0.236000 0.123631 0.359896 0.141226
H2    H     H_    0.139977 0.499404 0.874466 0.175219
H3    H     H_    0.468381 0.235591 0.656732 0.155828
H4    H     H_    0.473068 0.760730 0.361916 0.149508
H5    H     H_    0.968375 0.735586 0.656752 0.155835
H6    H     H_    0.973060 0.260737 0.361882 0.149519
H7    H     H_    0.491420 0.373146 0.778861 0.132931
H8    H     H_    0.501153 0.618571 0.254102 0.133465
H9    H     H_    0.991410 0.873139 0.778891 0.132934
H10   H     H_    0.001139 0.118583 0.254049 0.133468
H11   H     H_    0.877966 0.991437 0.770424 0.143637
H12   H     H_    0.229334 0.883091 0.624891 0.137478
H13   H     H_    0.887052 0.000579 0.262049 0.151223
H14   H     H_    0.377974 0.491443 0.770399 0.143638
H15   H     H_    0.387063 0.500569 0.262093 0.151220
H16   H     H_    0.741525 0.971836 0.640312 0.142921
H17   H     H_    0.745022 0.025006 0.376949 0.175088
H18   H     H_    0.241527 0.471838 0.640301 0.142920
H19   H     H_    0.245025 0.525003 0.376967 0.175079
H20   H     H_    0.624319 0.737890 0.355828 0.144777
H21   H     H_    0.616485 0.269116 0.627263 0.141534
H22   H     H_    0.124311 0.237883 0.355844 0.144771
H23   H     H_    0.736006 0.623638 0.359882 0.141230
H24   H     H_    0.116473 0.769128 0.627231 0.141527
H25   H     H_    0.330732 0.999047 0.246450 0.195381
H26   H     H_    0.830732 0.499047 0.246450 0.195381
H27   H     H_    0.192998 0.999890 0.124372 0.138267
H28   H     H_    0.692998 0.499890 0.124372 0.138267
H29   H     H_    0.729345 0.383080 0.624921 0.137484
H30   H     H_    0.192979 0.000668 0.876556 0.140181
H31   H     H_    0.692979 0.500668 0.876556 0.140181
H32   H     H_    0.330722 0.000924 0.754001 0.194993
H33   H     H_    0.830722 0.500924 0.754001 0.194993
H34   H     H_    0.639977 0.999403 0.874466 0.175216
N1    N     N_R   0.498810 0.000000 0.142780 -0.171639
N2    N     N_R   0.998810 0.500000 0.142780 -0.171640
N3    N     N_R   0.498740 0.000000 0.857170 -0.149604
N4    N     N_R   0.998740 0.500000 0.857170 -0.149604
O1    O     O_R   0.408390 0.908380 0.614690 -0.624354
O2    O     O_R   0.591620 0.908390 0.614640 -0.614069
O3    O     O_R   0.091620 0.591610 0.614640 -0.630859
O4    O     O_R   0.091620 0.408390 0.614640 -0.614069
O5    O     O_R   0.591610 0.091610 0.385310 -0.567626
O6    O     O_R   0.591610 0.908390 0.385310 -0.582537
O7    O     O_R   0.091610 0.591610 0.385310 -0.567623
O8    O     O_R   0.091610 0.408390 0.385310 -0.582536
O9    O     O_R   0.408390 0.091620 0.614690 -0.643911
O10   O     O_R   0.908390 0.408380 0.614690 -0.624355
O11   O     O_R   0.908390 0.591620 0.614690 -0.643913
O12   O     O_R   0.408370 0.908380 0.385360 -0.646573
O13   O     O_R   0.408370 0.091620 0.385360 -0.630536
O14   O     O_R   0.908370 0.408380 0.385360 -0.646578
O15   O     O_R   0.908370 0.591620 0.385360 -0.630536
O16   O     O_R   0.591620 0.091610 0.614640 -0.630860
Zn1   Zn    Zn3+2 0.500010 0.000000 0.653130 0.932957
Zn2   Zn    Zn3+2 0.000010 0.500000 0.653130 0.932957
Zn3   Zn    Zn3+2 0.499980 0.000000 0.346870 0.982143
Zn4   Zn    Zn3+2 0.999980 0.500000 0.346870 0.982143

loop_
_geom_bond_atom_site_label_1
_geom_bond_atom_site_label_2
_ccdc_geom_bond_type
C44   C49   A    
C33   C55   A    
C37   H8    S    
C42   H14   S    
O12   Zn3   S    
C36   C42   A    
C4    C8    A    
C9    H25   S    
C23   O14   A    
C39   C41   A    
C22   C29   A    
O15   Zn4   S    
C28   O8    A    
N1    Zn3   S    
C22   N1    A    
C19   C21   A    
O8    Zn4   S    
C48   C52   A    
C44   H16   S    
C1    C59   S    
C11   C14   A    
C6    C25   S    
N4    Zn2   S    
C62   H23   S    
C63   H29   S    
C56   H12   S    
C29   N3    A    
C60   C62   A    
C14   H30   S    
C61   C63   A    
C62   C64   A    
C45   H1    S    
C41   C46   A    
C1    O12   A    
C43   C48   A    
C8    C52   A    
C40   C44   A    
C24   N2    A    
C25   O5    A    
C38   H9    S    
C12   C58   S    
C11   H27   S    
C3    H22   S    
C10   H26   S    
O11   Zn2   S    
C55   C60   A    
C4    C56   A    
C34   C60   S    
C5    C49   A    
C2    C6    A    
C15   H31   S    
N2    Zn4   S    
C64   H20   S    
C52   C54   A    
C4    H24   S    
C54   C59   A    
C10   C21   A    
C45   C58   A    
C32   C37   A    
O5    Zn3   S    
C47   C51   A    
C20   N1    A    
C34   O11   A    
C47   H18   S    
C3    C45   A    
C6    C50   A    
C7    C28   S    
C46   H17   S    
C5    C64   A    
C51   C53   A    
C37   C43   A    
C35   C39   A    
C22   F1    S    
O6    Zn3   S    
C9    C11   A    
C19   N4    A    
C9    C20   A    
C27   O3    A    
O1    Zn1   S    
C2    H21   S    
O14   Zn4   S    
C39   H10   S    
C31   C53   A    
C17   H33   S    
C21   N2    A    
C35   H6    S    
C13   C15   A    
C43   H15   S    
C14   C16   A    
N3    Zn1   S    
C25   O16   A    
O16   Zn1   S    
C12   O9    A    
C23   C61   S    
C34   O15   A    
C15   C17   A    
C26   O6    A    
C2    C63   A    
C29   H34   S    
O7    Zn4   S    
C40   H11   S    
C50   C57   A    
C48   H19   S    
C26   O2    A    
O4    Zn2   S    
C10   C13   A    
C41   H13   S    
C32   H4    S    
C53   C58   A    
C57   C61   A    
C24   F2    S    
C46   C50   A    
C3    C7    A    
C33   C38   A    
C32   C54   A    
C56   C59   A    
C13   H28   S    
C35   C57   A    
O13   Zn3   S    
C7    C51   A    
C49   C55   A    
C23   O10   A    
C38   C40   A    
C18   N3    A    
C16   H32   S    
C28   O4    A    
O2    Zn1   S    
C17   C19   A    
C18   C20   A    
C42   C47   A    
C24   C30   A    
C36   H7    S    
C33   H5    S    
C27   O7    A    
C5    C26   S    
O10   Zn2   S    
C31   H3    S    
O9    Zn1   S    
C16   C18   A    
C30   N4    A    
C8    C27   S    
C31   C36   A    
C12   O13   A    
O3    Zn2   S    
C30   H2    S    
C1    O1    A    
