data_str_m3_o41_o41_f0_fof.sym.149
_audit_creation_date              2012-12-10T16:39:31-0500
_audit_creation_method            fapswitch 2.2
_symmetry_space_group_name_H-M    P1
_symmetry_Int_Tables_number       1
_space_group_crystal_system       triclinic
_cell_length_a                    16.815005
_cell_length_b                    16.716655
_cell_length_c                    16.692418
_cell_angle_alpha                 65.67711
_cell_angle_beta                  66.799209
_cell_angle_gamma                 65.617091
_cell_volume                      3749.84782206

loop_
_atom_site_label
_atom_site_type_symbol
_atom_type_description
_atom_site_fract_x
_atom_site_fract_y
_atom_site_fract_z
_atom_type_partial_charge
C1    C     C_R   0.297432 0.038070 0.428776 -0.099445
C2    C     C_R   0.666702 0.081595 0.533550 -0.018736
C3    C     C_R   0.920612 0.467865 0.332336 0.010868
C4    C     C_R   0.045666 0.539961 0.675709 0.000834
C5    C     C_R   0.460141 0.330220 0.938845 0.005674
C6    C     C_R   0.539491 0.669120 0.064576 0.000364
C7    C     C_R   0.534040 0.084241 0.665736 -0.041443
C8    C     C_R   0.428047 0.038756 0.296753 -0.044878
C9    C     C_R   0.684138 0.576353 0.991779 -0.057349
C10   C     C_R   0.315181 0.423088 0.011466 -0.045867
C11   C     C_R   0.985919 0.689374 0.573478 -0.050198
C12   C     C_R   0.931813 0.329151 0.463334 -0.057342
C13   C     C_R   0.429274 0.066214 0.429081 -0.042455
C14   C     C_R   0.523451 0.086600 0.523074 -0.039470
C15   C     C_R   0.947699 0.465662 0.467545 -0.041564
C16   C     C_R   0.986577 0.550629 0.557285 -0.047324
C17   C     C_R   0.455309 0.449406 0.992341 -0.042062
C18   C     C_R   0.543960 0.550530 0.010509 -0.039245
C19   C     C_R   0.959133 0.179914 0.438497 0.968213
C20   C     C_R   0.020427 0.823275 0.569743 1.021336
C21   C     C_R   0.176459 0.429389 0.981168 1.030257
C22   C     C_R   0.823200 0.570249 0.020225 1.031350
C23   C     C_R   0.430927 0.983066 0.175056 1.023920
C24   C     C_R   0.562342 0.036110 0.820685 1.022152
C25   C     C_R   0.560310 0.820115 0.042700 0.952474
C26   C     C_R   0.439342 0.179991 0.958186 0.966913
C27   C     C_R   0.039954 0.560496 0.820423 0.961260
C28   C     C_R   0.956754 0.440413 0.179549 0.970657
C29   C     C_R   0.820582 0.035964 0.562405 0.985657
C30   C     C_R   0.175331 0.982978 0.430842 0.899379
C31   C     C_R   0.386225 0.044782 0.386197 -0.048542
C32   C     C_R   0.574736 0.083723 0.574148 -0.080519
C33   C     C_R   0.933382 0.421010 0.420829 -0.083197
C34   C     C_R   0.007410 0.593018 0.601125 -0.090911
C35   C     C_R   0.410452 0.401486 0.980376 -0.086304
C36   C     C_R   0.588980 0.597889 0.023065 -0.091864
C37   C     C_R   0.265065 0.994860 0.393329 -0.220125
C38   C     C_R   0.722665 0.052690 0.592887 -0.188761
C39   C     C_R   0.924282 0.414856 0.280648 -0.209738
C40   C     C_R   0.060490 0.587423 0.720775 -0.191115
C41   C     C_R   0.410936 0.280882 0.933759 -0.179831
C42   C     C_R   0.588666 0.719055 0.068676 -0.193650
C43   C     C_R   0.592914 0.054962 0.722162 -0.143178
C44   C     C_R   0.392299 0.996614 0.264090 -0.152839
C45   C     C_R   0.727759 0.609125 0.025170 -0.151376
C46   C     C_R   0.271774 0.390488 0.977432 -0.149500
C47   C     C_R   0.022451 0.728503 0.607938 -0.153789
C48   C     C_R   0.930047 0.280651 0.411080 -0.130881
C49   C     C_R   0.437345 0.110393 0.697054 0.416121
C50   C     C_R   0.500778 0.078353 0.244696 0.412429
C51   C     C_R   0.929171 0.742072 0.513024 0.413525
C52   C     C_R   0.928975 0.290608 0.557750 0.460313
C53   C     C_R   0.731135 0.523876 0.929141 0.410927
C54   C     C_R   0.267404 0.477842 0.072126 0.402000
C55   C     C_R   0.246195 0.077581 0.502536 0.411287
C56   C     C_R   0.697249 0.107872 0.436379 0.410167
C57   C     C_R   0.555329 0.311869 0.902451 0.402843
C58   C     C_R   0.444598 0.686568 0.102215 0.403415
C59   C     C_R   0.900006 0.565674 0.301514 0.397305
C60   C     C_R   0.066463 0.442664 0.703212 0.428030
C61   C     C_R   0.320563 0.962264 0.319633 0.327981
C62   C     C_R   0.685997 0.026585 0.686546 0.314289
C63   C     C_R   0.913592 0.327290 0.325873 0.328011
C64   C     C_R   0.067573 0.674785 0.675201 0.310348
C65   C     C_R   0.322047 0.324489 0.931897 0.306620
C66   C     C_R   0.677723 0.675601 0.070403 0.322210
C67   C     C_R   0.649404 0.101616 0.386288 -0.017305
C68   C     C_R   0.291767 0.087788 0.551401 0.066694
C69   C     C_R   0.033225 0.402193 0.667818 -0.014939
C70   C     C_R   0.906575 0.612037 0.353081 -0.005915
C71   C     C_R   0.400409 0.632055 0.098099 -0.007189
C72   C     C_R   0.599859 0.365264 0.907846 -0.004198
C73   C     C_R   0.551773 0.085408 0.290770 -0.011844
C74   C     C_R   0.386366 0.106872 0.648173 0.020342
C75   C     C_R   0.311928 0.526824 0.084015 0.014344
C76   C     C_R   0.687488 0.472294 0.920106 -0.000775
C77   C     C_R   0.965416 0.325612 0.594650 0.001185
C78   C     C_R   0.922031 0.700108 0.458540 -0.004039
C79   C     C_R   0.685651 0.107411 0.292895 -0.203076
C80   C     C_R   0.245064 0.113295 0.631951 -0.142309
C81   C     C_R   0.030680 0.310556 0.708892 -0.218779
C82   C     C_R   0.880303 0.708851 0.329863 -0.192026
C83   C     C_R   0.309105 0.637828 0.145731 -0.194127
C84   C     C_R   0.692889 0.355069 0.865216 -0.187672
C85   C     C_R   0.637232 0.100298 0.245743 -0.207224
C86   C     C_R   0.291302 0.122998 0.679540 -0.236113
C87   C     C_R   0.266152 0.585528 0.139829 -0.192549
C88   C     C_R   0.735865 0.406980 0.871761 -0.206836
C89   C     C_R   0.994278 0.273890 0.674581 -0.205139
C90   C     C_R   0.886961 0.751956 0.382229 -0.208683
C91   C     C_R   0.515926 0.077537 0.384251 0.030635
C92   C     C_R   0.431953 0.088700 0.563403 0.018398
C93   C     C_R   0.971959 0.415201 0.550408 0.026468
C94   C     C_R   0.950146 0.603720 0.481653 0.025871
C95   C     C_R   0.405376 0.515376 0.040482 0.021858
C96   C     C_R   0.593862 0.484504 0.962526 0.024935
C97   C     C_R   0.563662 0.087090 0.431515 0.028816
C98   C     C_R   0.384915 0.078318 0.515940 -0.009676
C99   C     C_R   0.449781 0.566685 0.048904 0.022256
C100  C     C_R   0.549738 0.432576 0.954753 0.016515
C101  C     C_R   0.998272 0.455855 0.591320 0.022296
C102  C     C_R   0.937148 0.560198 0.432527 0.024593
H1    H     H_    0.250831 0.141987 0.741268 0.137881
H2    H     H_    0.668906 0.102907 0.174654 0.147703
H3    H     H_    0.867162 0.826393 0.360360 0.155213
H4    H     H_    0.992424 0.203556 0.708793 0.150149
H5    H     H_    0.808171 0.393092 0.840494 0.160239
H6    H     H_    0.196402 0.592935 0.179597 0.147088
H7    H     H_    0.172665 0.124028 0.659625 0.183941
H8    H     H_    0.752801 0.114489 0.255996 0.153525
H9    H     H_    0.734060 0.307472 0.825575 0.151882
H10   H     H_    0.269819 0.681220 0.189960 0.160822
H11   H     H_    0.852659 0.752998 0.272363 0.152643
H12   H     H_    0.052433 0.267911 0.770298 0.147681
O1    O     O_R   0.982940 0.138950 0.510160 -0.587795
O2    O     O_R   0.017060 0.861050 0.489840 -0.608673
O3    O     O_R   0.138950 0.510160 0.982940 -0.648021
O4    O     O_R   0.861050 0.489840 0.017060 -0.621762
O5    O     O_R   0.510160 0.982940 0.138950 -0.613682
O6    O     O_R   0.489840 0.017060 0.861050 -0.636172
O7    O     O_R   0.489840 0.861050 0.017060 -0.603099
O8    O     O_R   0.510160 0.138950 0.982940 -0.574228
O9    O     O_R   0.017060 0.489840 0.861050 -0.550628
O10   O     O_R   0.982940 0.510160 0.138950 -0.592697
O11   O     O_R   0.861050 0.017060 0.489840 -0.560890
O12   O     O_R   0.138950 0.982940 0.510160 -0.590355
O13   O     O_R   0.867700 0.025880 0.612340 -0.595752
O14   O     O_R   0.132300 0.974120 0.387660 -0.606588
O15   O     O_R   0.025880 0.612340 0.867700 -0.622518
O16   O     O_R   0.974120 0.387660 0.132300 -0.623366
O17   O     O_R   0.612340 0.867700 0.025880 -0.606033
O18   O     O_R   0.387660 0.132300 0.974120 -0.613548
O19   O     O_R   0.387660 0.974120 0.132300 -0.567315
O20   O     O_R   0.612340 0.025880 0.867700 -0.555655
O21   O     O_R   0.132300 0.387660 0.974120 -0.554894
O22   O     O_R   0.867700 0.612340 0.025880 -0.562637
O23   O     O_R   0.974120 0.132300 0.387660 -0.564314
O24   O     O_R   0.025880 0.867700 0.612340 -0.574562
Zn1   Zn    Zn3+2 0.004880 0.004880 0.583590 1.072183
Zn2   Zn    Zn3+2 0.995120 0.995120 0.416410 1.056265
Zn3   Zn    Zn3+2 0.004880 0.583590 0.004880 1.004269
Zn4   Zn    Zn3+2 0.995120 0.416410 0.995120 1.056489
Zn5   Zn    Zn3+2 0.583590 0.004880 0.004880 1.039433
Zn6   Zn    Zn3+2 0.416410 0.995120 0.995120 1.005518
O25   O     O_3   0.303851 0.900095 0.297962 -0.716707
H13   H     H_    0.279465 0.856468 0.355582 0.340735
O26   O     O_3   0.740326 0.968095 0.744979 -0.718558
H14   H     H_    0.783487 0.916901 0.719392 0.334122
O27   O     O_3   0.892090 0.283787 0.285925 -0.715603
H15   H     H_    0.851416 0.331348 0.247693 0.334062
O28   O     O_3   0.111578 0.711015 0.700517 -0.730356
H16   H     H_    0.154193 0.659679 0.734599 0.336872
O29   O     O_3   0.282127 0.298893 0.891670 -0.708314
H17   H     H_    0.330508 0.269724 0.845579 0.375560
O30   O     O_3   0.718113 0.702112 0.109473 -0.700499
H18   H     H_    0.670089 0.735077 0.153055 0.343624
O31   O     O_3   0.395008 0.148967 0.767665 -0.778921
H19   H     H_    0.341457 0.127574 0.806754 0.333315
O32   O     O_3   0.511092 0.121999 0.152326 -0.746588
H20   H     H_    0.540847 0.169936 0.131991 0.321547
O33   O     O_3   0.874999 0.830069 0.515797 -0.772705
H21   H     H_    0.820588 0.845881 0.496134 0.325551
O34   O     O_3   0.879414 0.229347 0.613700 -0.736961
H22   H     H_    0.864036 0.227106 0.678141 0.319704
O35   O     O_3   0.816021 0.530079 0.873242 -0.767796
H23   H     H_    0.823939 0.525016 0.813343 0.324169
O36   O     O_3   0.181486 0.474054 0.126020 -0.763187
H24   H     H_    0.142696 0.537121 0.127405 0.330644
O37   O     O_3   0.154414 0.121325 0.517743 -0.748397
H25   H     H_    0.141014 0.146629 0.457724 0.326609
O38   O     O_3   0.767233 0.146935 0.392725 -0.730817
H26   H     H_    0.759794 0.189823 0.332196 0.339347
O39   O     O_3   0.601331 0.248784 0.853866 -0.750326
H27   H     H_    0.659664 0.212369 0.869580 0.327037
O40   O     O_3   0.398724 0.750325 0.150071 -0.732367
H28   H     H_    0.338465 0.783543 0.138004 0.332792
O41   O     O_3   0.861663 0.614651 0.229290 -0.719087
H29   H     H_    0.886985 0.666708 0.191391 0.329267
O42   O     O_3   0.124030 0.389477 0.759051 -0.728949
H30   H     H_    0.155638 0.328552 0.748331 0.333012

loop_
_geom_bond_atom_site_label_1
_geom_bond_atom_site_label_2
_ccdc_geom_bond_type
O18   Zn6   S    
C83   C87   A    
O38   H26   S    
C30   O12   A    
C68   C80   A    
O31   H19   S    
C29   O11   A    
C18   C96   A    
O37   H25   S    
C6    C58   A    
C11   C47   A    
O34   H22   S    
O6    Zn6   S    
C54   O36   S    
C12   C48   A    
O33   H21   S    
C75   C95   A    
O39   H27   S    
C78   C90   A    
C60   O42   S    
C9    C45   A    
O29   H17   S    
C77   C89   A    
O35   H23   S    
C17   C35   A    
C58   O40   S    
C15   C33   A    
O32   H20   S    
C23   O5    A    
C66   O30   S    
C75   C87   A    
C95   C99   A    
C58   C71   A    
O15   Zn3   S    
C3    C33   A    
C10   C54   A    
C74   C92   A    
C96   C100  A    
C1    C31   A    
O5    Zn5   S    
C2    C32   A    
C20   O24   A    
C13   C98   A    
C61   O25   S    
C63   O27   S    
C80   C86   A    
C16   C34   A    
O20   Zn5   S    
C30   O14   A    
C87   H6    S    
O26   H14   S    
C80   H7    S    
C10   C46   A    
C9    C36   A    
C21   O3    A    
O28   H16   S    
C43   C62   A    
C10   C35   A    
C17   C95   A    
C7    C43   A    
C76   C88   A    
C79   H8    S    
C1    C37   A    
C81   C89   A    
C3    C39   A    
O36   H24   S    
C50   O32   S    
C13   C91   A    
C82   H11   S    
O7    Zn6   S    
C49   O31   S    
O13   Zn1   S    
O8    Zn5   S    
C70   C82   A    
C86   H1    S    
O17   Zn5   S    
C12   C52   A    
O25   H13   S    
O30   H18   S    
C71   C83   A    
O21   Zn4   S    
O11   Zn2   S    
O23   Zn2   S    
C4    C34   A    
O12   Zn1   S    
C24   O6    A    
C84   H9    S    
C23   O19   A    
C64   O28   S    
C92   C98   A    
C4    C40   A    
C59   O41   S    
C29   C38   S    
C67   C79   A    
C7    C49   A    
C46   C65   A    
C50   C73   A    
C93   C101  A    
C47   C64   A    
C20   O2    A    
C88   H5    S    
C55   C68   A    
C19   C48   S    
C48   C63   A    
C41   C65   A    
C59   C70   A    
C28   C39   S    
C71   C99   A    
C91   C97   A    
C23   C44   S    
C54   C75   A    
C30   C37   S    
C22   O22   A    
C81   H12   S    
O3    Zn3   S    
O22   Zn3   S    
C2    C38   A    
O40   H28   S    
C19   O1    A    
C27   C40   S    
C19   O23   A    
C73   C85   A    
C4    C60   A    
C70   C102  A    
C74   C86   A    
C73   C91   A    
C72   C84   A    
C85   H2    S    
C69   C81   A    
C57   O39   S    
C53   O35   S    
C14   C92   A    
C62   O26   S    
C29   O13   A    
C56   O38   S    
C27   O15   A    
C89   H4    S    
O10   Zn3   S    
C53   C76   A    
C9    C53   A    
C18   C99   A    
C52   C77   A    
C25   O17   A    
C8    C50   A    
C79   C85   A    
C26   O18   A    
C14   C97   A    
C21   C46   S    
C72   C100  A    
C65   O29   S    
C22   O4    A    
C5    C41   A    
O19   Zn6   S    
C27   O9    A    
C7    C32   A    
C24   O20   A    
C83   H10   S    
C8    C31   A    
C13   C31   A    
C11   C34   A    
C15   C102  A    
C84   C88   A    
C90   H3    S    
O1    Zn1   S    
O4    Zn4   S    
C82   C90   A    
C25   C42   S    
C15   C93   A    
C37   C61   A    
C28   O10   A    
C69   C101  A    
C44   C61   A    
C56   C67   A    
C39   C63   A    
C16   C94   A    
C40   C64   A    
C5    C57   A    
O14   Zn2   S    
C51   C78   A    
C2    C56   A    
O27   H15   S    
C76   C96   A    
C25   O7    A    
C60   C69   A    
C78   C94   A    
C5    C35   A    
O9    Zn4   S    
C77   C93   A    
C6    C36   A    
C51   O33   S    
C28   O16   A    
C57   C72   A    
C1    C55   A    
C8    C44   A    
O16   Zn4   S    
C17   C100  A    
C68   C98   A    
C20   C47   S    
C11   C51   A    
O24   Zn1   S    
C67   C97   A    
C52   O34   S    
O42   H30   S    
C16   C101  A    
C22   C45   S    
C14   C32   A    
C94   C102  A    
O41   H29   S    
C6    C42   A    
C45   C66   A    
C42   C66   A    
C24   C43   S    
C49   C74   A    
C55   O37   S    
C26   O8    A    
O2    Zn2   S    
C12   C33   A    
C18   C36   A    
C21   O21   A    
C26   C41   S    
C38   C62   A    
C3    C59   A    
