data_str_m2_o16_o18_f0_pcu.sym.242
_audit_creation_date              2012-12-10T17:33:02-0500
_audit_creation_method            fapswitch 2.2
_symmetry_space_group_name_H-M    P1
_symmetry_Int_Tables_number       1
_space_group_crystal_system       triclinic
_cell_length_a                    12.360031
_cell_length_b                    13.235429
_cell_length_c                    14.263198
_cell_angle_alpha                 93.355837
_cell_angle_beta                  107.590975
_cell_angle_gamma                 116.952561
_cell_volume                      1929.42048619

loop_
_atom_site_label
_atom_site_type_symbol
_atom_type_description
_atom_site_fract_x
_atom_site_fract_y
_atom_site_fract_z
_atom_type_partial_charge
C1    C     C_R   0.652506 0.714478 0.511562 0.873561
C2    C     C_R   0.841414 0.488955 0.917114 0.091272
C3    C     C_R   0.787276 0.499471 0.989330 0.164159
C4    C     C_R   0.947660 0.466427 0.944211 0.066501
C5    C     C_R   0.007731 0.467928 0.046770 0.065228
C6    C     C_R   0.949323 0.476507 0.116226 -0.223250
C7    C     C_R   0.840629 0.491179 0.087525 -0.233430
C8    C     C_R   0.993753 0.439664 0.871880 -0.233677
C9    C     C_R   0.100531 0.422179 0.900271 -0.246218
C10   C     C_R   0.167235 0.433545 0.001604 0.167651
C11   C     C_R   0.122882 0.458517 0.076013 0.091006
C12   C     C_R   0.618009 0.516291 0.686627 0.782716
C13   C     C_R   0.278660 0.420874 0.029518 -0.211862
C14   C     C_R   0.348484 0.435285 0.130976 -0.207767
C15   C     C_R   0.197933 0.477178 0.177748 -0.267603
C16   C     C_R   0.131820 0.964824 0.360066 -0.247580
C17   C     C_R   0.249013 0.161323 0.462308 -0.180543
C18   C     C_R   0.759627 0.914138 0.609830 -0.290652
C19   C     C_R   0.874377 0.019015 0.655176 -0.197882
C20   C     C_R   0.977416 0.049458 0.621428 0.512765
C21   C     C_R   0.957466 0.982822 0.528765 -0.072343
C22   C     C_R   0.838222 0.875863 0.481701 -0.093392
C23   C     C_R   0.344428 0.284990 0.483427 0.825684
C24   C     C_R   0.051976 0.016251 0.482418 0.075850
C25   C     C_R   0.035626 0.935970 0.401913 0.004482
C26   C     C_R   0.918083 0.832440 0.356955 -0.269915
C27   C     C_R   0.815670 0.807981 0.389526 0.515002
C28   C     C_R   0.156691 0.129890 0.507823 -0.267891
C29   C     C_R   0.237838 0.077916 0.388499 0.512583
C30   C     C_R   0.745602 0.838225 0.528974 -0.100653
C31   C     C_R   0.253669 0.680090 0.667654 0.401129
C32   C     C_R   0.655829 0.344535 0.361777 0.104494
C33   C     C_R   0.734050 0.311820 0.330346 -0.263967
C34   C     C_R   0.380372 0.481395 0.313164 0.814975
C35   C     C_R   0.869013 0.370438 0.382295 -0.199330
C36   C     C_R   0.928289 0.463583 0.466911 0.030262
C37   C     C_R   0.843681 0.494592 0.495810 0.299894
C38   C     C_R   0.067696 0.527024 0.523674 -0.091791
C39   C     C_R   0.118711 0.618888 0.608529 0.062990
C40   C     C_R   0.034731 0.648718 0.633922 -0.259161
C41   C     C_R   0.901406 0.588881 0.578730 -0.220325
C42   C     C_R   0.159614 0.503513 0.500541 -0.001925
C43   C     C_R   0.338016 0.653529 0.639103 -0.024574
C44   C     C_R   0.678631 0.517341 0.792528 -0.044122
C45   C     C_R   0.308915 0.464738 0.205582 -0.065469
C46   C     C_R   0.679508 0.517573 0.962297 -0.208460
C47   C     C_R   0.624488 0.525175 0.864028 -0.194561
C48   C     C_R   0.788452 0.503162 0.820367 -0.254226
Cu1   Cu    Cu3+1 0.416420 0.526630 0.522910 0.935134
Cu2   Cu    Cu3+1 0.583580 0.473370 0.477090 0.972242
H1    H     H_    0.312135 0.400436 0.972865 0.138564
H2    H     H_    0.901131 0.774963 0.290309 0.159216
H3    H     H_    0.162274 0.198608 0.556557 0.233965
H4    H     H_    0.687672 0.887237 0.645063 0.176929
H5    H     H_    0.888214 0.072244 0.723041 0.165320
H6    H     H_    0.441889 0.701471 0.682815 0.138669
H7    H     H_    0.173981 0.505075 0.237197 0.156003
H8    H     H_    0.129048 0.435029 0.437585 0.133225
H9    H     H_    0.551685 0.299011 0.320531 0.148038
H10   H     H_    0.689788 0.240680 0.265232 0.148932
H11   H     H_    0.847215 0.620162 0.604276 0.197665
H12   H     H_    0.434125 0.424994 0.151005 0.160489
H13   H     H_    0.132418 0.401569 0.842499 0.163588
H14   H     H_    0.636903 0.524492 0.016896 0.136018
H15   H     H_    0.539276 0.536131 0.843908 0.151883
H16   H     H_    0.832130 0.504989 0.765245 0.153182
H17   H     H_    0.982490 0.468190 0.192938 0.143871
H18   H     H_    0.947001 0.427799 0.791822 0.156605
N1    N     N_R   0.290690 0.566960 0.557640 -0.204938
N2    N     N_R   0.709100 0.433710 0.442970 -0.204643
O1    O     O_R   0.545970 0.684450 0.528810 -0.589096
O2    O     O_R   0.687130 0.639470 0.490120 -0.562066
O3    O     O_R   0.519670 0.535100 0.660030 -0.586851
O4    O     O_R   0.660830 0.490120 0.621340 -0.607458
O5    O     O_R   0.312870 0.360530 0.509880 -0.593365
O6    O     O_R   0.454030 0.315550 0.471190 -0.536068
O7    O     O_R   0.339170 0.509880 0.378660 -0.592471
O8    O     O_R   0.480330 0.464900 0.339970 -0.569297
H19   H     H_    0.798690 0.496962 0.142960 0.152807
O9    O     O_3   0.325992 0.107778 0.340193 -0.569577
C49   C     C_3   0.270531 0.127188 0.245691 -0.342060
H20   H     H_    0.340362 0.149943 0.206275 0.176621
H21   H     H_    0.252093 0.201351 0.255206 0.150524
H22   H     H_    0.178926 0.047654 0.196153 0.158817
H23   H     H_    0.120515 0.901967 0.300391 0.151749
O10   O     O_3   0.097532 0.141039 0.683674 -0.610412
C50   C     C_3   0.168059 0.095604 0.746410 -0.336295
H24   H     H_    0.185617 0.036985 0.701407 0.183919
H25   H     H_    0.264752 0.169107 0.796138 0.194305
H26   H     H_    0.117304 0.049023 0.795888 0.162156
O11   O     O_3   0.693376 0.717499 0.329064 -0.567364
C51   C     C_3   0.623148 0.764827 0.268875 -0.357177
H27   H     H_    0.674312 0.814501 0.220798 0.161291
H28   H     H_    0.604977 0.820959 0.316005 0.166906
H29   H     H_    0.526824 0.692431 0.217582 0.197443
H30   H     H_    0.072059 0.719750 0.697567 0.192797
O12   O     O_3   0.304429 0.769491 0.750751 -0.585950
C52   C     C_3   0.319418 0.724572 0.838169 -0.355293
H31   H     H_    0.224133 0.653385 0.835606 0.174490
H32   H     H_    0.357348 0.795350 0.904864 0.197851
H33   H     H_    0.391288 0.693394 0.849264 0.155796
H34   H     H_    0.924472 0.341186 0.354590 0.133736

loop_
_geom_bond_atom_site_label_1
_geom_bond_atom_site_label_2
_ccdc_geom_bond_type
C50   H24   S    
C12   O4    A    
C17   C29   A    
C35   C36   A    
C41   H11   S    
C23   O6    A    
C4    C8    A    
C35   H34   S    
C42   H8    S    
O12   C52   S    
C26   C27   A    
C17   C23   S    
C31   C43   A    
C36   C37   A    
C5    C11   A    
Cu2   O6    S    
Cu2   O4    S    
C34   O7    A    
C5    C6    A    
C52   H31   S    
C14   H12   S    
C18   C19   A    
Cu2   O2    S    
C1    C30   S    
C13   H1    S    
C11   C15   A    
C19   C20   A    
Cu1   O7    S    
C8    C9    A    
C20   O10   S    
Cu1   O5    S    
C27   O11   S    
C18   C30   A    
C9    C10   A    
C44   C47   A    
C31   O12   S    
C43   N1    A    
Cu1   N1    S    
C13   C14   A    
C37   C41   A    
C15   H7    S    
C40   H30   S    
Cu2   O8    S    
C12   O3    A    
C49   H21   S    
C49   H20   S    
C14   C45   A    
C1    O2    A    
C24   C25   A    
O11   C51   S    
O10   C50   S    
O9    C49   S    
C32   N2    A    
C2    C48   A    
C16   C29   A    
C51   H29   S    
C46   H14   S    
C2    C4    A    
C26   H2    S    
C51   H28   S    
C34   C45   S    
C1    O1    A    
C6    H17   S    
C8    H18   S    
C33   H10   S    
C52   H32   S    
C22   C27   A    
C50   H25   S    
C16   H23   S    
Cu1   O3    S    
C50   H26   S    
C15   C45   A    
C39   C40   A    
C49   H22   S    
C7    H19   S    
C19   H5    S    
C16   C25   A    
C46   C47   A    
C40   C41   A    
C22   C30   A    
C9    H13   S    
C17   C28   A    
C24   C28   A    
C23   O5    A    
C4    C5    A    
C10   C13   A    
C28   H3    S    
C38   C42   A    
C6    C7    A    
C52   H33   S    
C3    C46   A    
C3    C7    A    
C37   N2    A    
C32   C33   A    
C36   C38   A    
C2    C3    A    
C25   C26   A    
C12   C44   S    
C34   O8    A    
C38   C39   A    
C29   O9    S    
C51   H27   S    
C33   C35   A    
C31   C39   A    
C42   N1    A    
Cu2   N2    S    
C10   C11   A    
C18   H4    S    
C43   H6    S    
C20   C21   A    
Cu1   Cu2   S    
Cu1   O1    S    
C21   C24   A    
C32   H9    S    
C48   H16   S    
C21   C22   A    
C47   H15   S    
C44   C48   A    
