data_str_m3_o4_o17_f0_pcu.sym.138
_audit_creation_date              2013-03-05T16:42:12-0500
_audit_creation_method            fapswitch 2.2
_symmetry_space_group_name_H-M    P1
_symmetry_Int_Tables_number       1
_space_group_crystal_system       triclinic
_cell_length_a                    14.87802
_cell_length_b                    10.666006
_cell_length_c                    9.924315
_cell_angle_alpha                 88.760066
_cell_angle_beta                  90.369168
_cell_angle_gamma                 89.999001
_cell_volume                      1574.47865574

loop_
_atom_site_label
_atom_site_type_symbol
_atom_site_description
_atom_site_fract_x
_atom_site_fract_y
_atom_site_fract_z
_atom_type_partial_charge
O1    O     O_R   0.500010 0.316790 0.614690 -0.557732
O2    O     O_R   0.500000 0.316760 0.385350 -0.629276
C1    C     C_R   0.505296 0.260345 0.500986 0.899097
O3    O     O_R   0.367850 0.499990 0.614680 -0.605962
O4    O     O_R   0.367840 0.499950 0.385340 -0.572221
C2    C     C_R   0.327297 0.496876 0.500126 0.911336
Zn1   Zn    Zn3+2 0.500010 0.500020 0.653130 1.026380
Zn2   Zn    Zn3+2 0.499990 0.499980 0.346870 0.991105
O5    O     O_R   0.500000 0.683240 0.614650 -0.619091
O6    O     O_R   0.499990 0.683210 0.385310 -0.584682
O7    O     O_R   0.632160 0.500050 0.614660 -0.621638
O8    O     O_R   0.632150 0.500010 0.385320 -0.627656
C3    C     C_R   0.503833 0.740193 0.498254 0.874775
C4    C     C_R   0.672768 0.500148 0.500486 0.872559
C5    C     C_R   0.814337 0.596256 0.557598 -0.198920
C6    C     C_R   0.767999 0.496515 0.502996 -0.058749
C7    C     C_R   0.811519 0.390180 0.458193 -0.174965
C8    C     C_R   0.904649 0.381242 0.469220 0.005510
C9    C     C_R   0.953003 0.485795 0.517655 0.041611
C10   C     C_R   0.907145 0.592853 0.563059 0.082027
C11   C     C_R   0.950656 0.272384 0.430358 0.318354
C12   C     C_R   0.044281 0.272780 0.429891 -0.245738
C13   C     C_R   0.093079 0.378816 0.469385 0.037188
C14   C     C_R   0.046814 0.484755 0.518246 0.012320
C15   C     C_R   0.094234 0.590750 0.565531 0.019989
C16   C     C_R   0.047595 0.694698 0.616964 0.321020
C17   C     C_R   0.954113 0.695151 0.613139 -0.230080
C18   C     C_R   0.187279 0.381560 0.463295 0.204974
C19   C     C_R   0.231883 0.490258 0.503162 -0.024392
C20   C     C_R   0.186995 0.592102 0.555176 -0.199578
H1    H     H_    0.777950 0.677237 0.592896 0.133651
H2    H     H_    0.771786 0.315487 0.415776 0.184663
H3    H     H_    0.077951 0.187962 0.400529 0.199958
H4    H     H_    0.225683 0.673428 0.583842 0.172772
H5    H     H_    0.917916 0.775372 0.650593 0.199713
C21   C     C_R   0.541528 0.060569 0.617271 0.073714
C22   C     C_R   0.525264 0.129917 0.499639 -0.175756
C23   C     C_R   0.531476 0.070665 0.375316 -0.232425
H6    H     H_    0.529340 0.123402 0.280766 0.208403
C24   C     C_R   0.527969 0.941035 0.370892 0.195754
C25   C     C_R   0.522268 0.871811 0.493858 -0.162779
C26   C     C_R   0.540329 0.932703 0.613755 0.013251
C27   C     C_3   0.501528 0.919067 0.752347 -0.089782
C28   C     C_3   0.501616 0.062870 0.755563 0.115501
H7    H     H_    0.432607 0.878620 0.752882 0.151584
H8    H     H_    0.433093 0.103803 0.756640 0.141903
C29   C     C_R   0.428347 0.545337 0.068666 0.069950
N1    N     N_R   0.499390 0.499140 0.142800 -0.114820
C30   C     C_R   0.574465 0.464836 0.073273 -0.103033
H9    H     H_    0.633866 0.434173 0.127965 0.168564
C31   C     C_R   0.574518 0.465248 0.929716 -0.006800
H10   H     H_    0.634129 0.435588 0.877486 0.178009
N2    N     N_R   0.499390 0.499180 0.857150 -0.073868
C32   C     C_R   0.428184 0.543427 0.927340 0.034151
C33   C     C_3   0.330359 0.509582 0.916824 0.045151
C34   C     C_3   0.329542 0.510980 0.072147 0.302479
H11   H     H_    0.290977 0.585397 0.865335 0.165733
N3    N     N_2   0.521493 0.883851 0.243323 -0.295378
H12   H     H_    0.568718 0.917376 0.176074 0.249601
C35   C     C_3   0.431702 0.885967 0.186594 -0.620313
H13   H     H_    0.411218 0.983650 0.159990 0.233342
H14   H     H_    0.382866 0.844579 0.259236 0.263704
H15   H     H_    0.430364 0.829688 0.094159 0.246171
N4    N     N_2   0.560753 0.855922 0.850326 -0.271543
H16   H     H_    0.546253 0.873441 0.949124 0.250604
C36   C     C_3   0.655665 0.840394 0.822769 -0.603098
H17   H     H_    0.688187 0.788296 0.908020 0.214816
H18   H     H_    0.688951 0.932939 0.810326 0.275706
H19   H     H_    0.664829 0.784818 0.730638 0.225215
N5    N     N_R   0.562082 0.116380 0.856296 0.250484
O9    O     O_R   0.537615 0.117450 0.981792 -0.449819
O10   O     O_R   0.634538 0.176422 0.820256 -0.378734
N6    N     N_R   0.310682 0.386629 0.860773 0.217098
O11   O     O_R   0.227392 0.352797 0.844605 -0.380208
O12   O     O_R   0.374367 0.311733 0.823788 -0.407653
N7    N     N_R   0.273977 0.614292 0.122015 0.208820
O13   O     O_R   0.213759 0.593740 0.214348 -0.380625
O14   O     O_R   0.278186 0.725440 0.065651 -0.401528
N8    N     N_2   0.307482 0.391108 0.139668 -0.276304
H20   H     H_    0.239517 0.372291 0.142366 0.260742
C37   C     C_3   0.361382 0.278527 0.125510 -0.609522
H21   H     H_    0.371920 0.233676 0.226086 0.230752
H22   H     H_    0.427594 0.297236 0.079853 0.271078
H23   H     H_    0.325139 0.210258 0.062042 0.257821
N9    N     N_R   0.903903 0.159938 0.393899 0.210938
O15   O     O_R   0.842029 0.113509 0.472519 -0.373058
O16   O     O_R   0.933884 0.092168 0.296394 -0.343902
N10   N     N_2   0.238096 0.278047 0.415947 -0.337138
H24   H     H_    0.212415 0.235880 0.331642 0.233966
C38   C     C_3   0.266780 0.189125 0.519486 -0.709660
H25   H     H_    0.207631 0.143497 0.567575 0.283307
H26   H     H_    0.307310 0.236848 0.597103 0.281081
H27   H     H_    0.309335 0.115864 0.474053 0.217833
N11   N     N_R   0.093618 0.799807 0.673866 0.204586
O17   O     O_R   0.153430 0.781627 0.768558 -0.362514
O18   O     O_R   0.064678 0.913186 0.649049 -0.349875

loop_
_geom_bond_atom_site_label_1
_geom_bond_atom_site_label_2
_geom_bond_distance
_ccdc_geom_bond_type
C16   N11   1.437729 S    
C36   H18   1.109223 S    
C33   C34   1.541994 S    
C24   C25   1.415609 A    
C34   N7    1.473582 S    
C8    C11   1.410012 A    
N6    O11   1.300586 A    
C21   C26   1.365140 A    
C9    C10   1.413739 A    
C3    C25   1.430179 S    
C37   H21   1.107727 S    
N9    O15   1.301544 A    
Zn1   O7    2.005268 S    
C16   C17   1.391115 A    
C19   C20   1.386052 A    
C34   N8    1.468758 S    
C35   H15   1.107183 S    
C21   C22   1.388346 A    
N7    O14   1.301539 A    
C23   H6    1.083827 S    
O7    C4    1.287517 A    
C36   H19   1.109524 S    
N3    C35   1.446334 S    
C5    C6    1.385938 A    
C35   H14   1.111528 S    
C8    C9    1.418088 A    
C25   C26   1.392554 A    
O5    C3    1.295039 A    
C6    C7    1.388807 A    
C30   C31   1.424613 A    
C18   N10   1.427715 S    
C13   C14   1.419047 A    
C28   N5    1.465463 S    
N5    O9    1.300102 A    
C36   H17   1.110449 S    
C11   C12   1.393000 A    
N6    O12   1.299150 A    
O3    Zn1   2.000551 S    
C37   H22   1.103370 S    
C28   H8    1.109226 S    
C27   N4    1.461559 S    
N9    O16   1.301408 A    
C5    C10   1.381960 A    
C11   N9    1.438323 S    
C24   N3    1.419860 S    
C20   H4    1.083171 S    
C31   H10   1.080914 S    
C14   C15   1.419448 A    
O3    C2    1.284680 A    
N8    C37   1.453759 S    
C17   H5    1.084730 S    
C15   C16   1.414317 A    
N2    C32   1.361621 A    
C35   H13   1.111380 S    
O1    C1    1.293270 A    
N4    C36   1.450226 S    
C27   C28   1.534836 S    
Zn2   N1    2.025431 S    
C22   C23   1.401954 A    
C38   H26   1.107732 S    
C29   N1    1.369510 A    
Zn2   O8    2.000550 S    
C7    C8    1.392311 A    
C13   C18   1.403487 A    
N7    O13   1.300884 A    
N11   O18   1.301603 A    
C27   H7    1.112468 S    
C29   C32   1.403143 A    
N1    C30   1.370559 A    
N10   C38   1.445579 S    
C33   H11   1.112020 S    
C4    C6    1.417424 S    
C21   C28   1.499598 S    
C26   C27   1.499264 S    
Zn1   N2    2.024666 S    
C37   H23   1.110502 S    
C38   H27   1.110710 S    
C15   C20   1.384624 A    
Zn1   O5    1.983061 S    
C12   H3    1.080536 S    
C32   C33   1.503069 S    
C18   C19   1.399131 A    
O1    Zn1   1.999304 S    
O2    Zn2   1.983062 S    
O8    C4    1.289458 A    
O6    C3    1.287523 A    
O4    Zn2   2.005268 S    
C5    H1    1.085062 S    
C10   C17   1.394580 A    
N4    H16   1.026404 S    
C9    C14   1.395747 A    
N3    H12   1.030868 S    
C23   C24   1.385252 A    
C38   H25   1.111047 S    
O4    C2    1.292236 A    
O2    C1    1.286174 A    
N11   O17   1.301524 A    
N8    H20   1.031309 S    
C33   N6    1.464387 S    
C2    C19   1.421815 S    
N10   H24   1.029782 S    
C1    C22   1.422867 S    
Zn2   O6    1.999305 S    
C30   H9    1.081094 S    
C7    H2    1.082905 S    
C12   C13   1.405483 A    
N5    O10   1.302014 A    
C31   N2    1.370158 A    
C29   C34   1.515444 S    
