data_str_m2_o10_o16_f0_pcu.sym.135
_audit_creation_date              2012-12-10T16:44:14-0500
_audit_creation_method            fapswitch 2.2
_symmetry_space_group_name_H-M    P1
_symmetry_Int_Tables_number       1
_space_group_crystal_system       triclinic
_cell_length_a                    7.426593
_cell_length_b                    8.691771
_cell_length_c                    13.381442
_cell_angle_alpha                 94.015355
_cell_angle_beta                  77.288316
_cell_angle_gamma                 103.160452
_cell_volume                      820.293544085

loop_
_atom_site_label
_atom_site_type_symbol
_atom_type_description
_atom_site_fract_x
_atom_site_fract_y
_atom_site_fract_z
_atom_type_partial_charge
C1    C     C_R   0.545430 0.800224 0.502882 0.866342
C2    C     C_R   0.422358 0.498770 0.974615 0.083734
C3    C     C_R   0.462797 0.551156 0.872305 0.090792
C4    C     C_R   0.562379 0.548475 0.034998 0.065322
C5    C     C_R   0.730118 0.660699 0.995936 0.130594
C6    C     C_R   0.759210 0.720874 0.898539 -0.233639
C7    C     C_R   0.627143 0.668379 0.838079 -0.203409
C8    C     C_R   0.540160 0.491507 0.133488 -0.297988
C9    C     C_R   0.832532 0.671059 0.157747 0.145544
C10   C     C_R   0.336487 0.486503 0.806828 -0.109798
C11   C     C_2   0.571141 0.968080 0.504122 -0.380565
C12   C     C_R   0.398983 0.495669 0.694575 0.779028
C13   C     C_2   0.429340 0.031876 0.495022 -0.378507
C14   C     C_R   0.454756 0.199771 0.496796 0.893563
C15   C     C_R   0.603126 0.518157 0.306162 0.788138
C16   C     C_R   0.864486 0.717509 0.056104 -0.207880
C17   C     C_R   0.667302 0.555650 0.196710 -0.081127
C18   C     C_R   0.158282 0.393565 0.847994 -0.184966
C19   C     C_R   0.110250 0.354936 0.950843 -0.134360
C20   C     C_R   0.241664 0.402427 0.012967 -0.196227
Cu1   Cu    Cu3+1 0.321300 0.483160 0.488710 0.933176
Cu2   Cu    Cu3+1 0.678700 0.516840 0.511290 0.935693
H1    H     H_    0.292732 0.960425 0.486341 0.176440
H2    H     H_    0.011046 0.618053 0.579178 0.226096
H3    H     H_    0.988901 0.381914 0.420861 0.220433
H4    H     H_    0.884177 0.810463 0.869134 0.142425
H5    H     H_    0.990826 0.805014 0.025321 0.134744
H6    H     H_    0.420616 0.399620 0.164724 0.152325
H7    H     H_    0.058486 0.345452 0.799702 0.158180
H8    H     H_    0.195022 0.365690 0.091400 0.126069
H9    H     H_    0.972251 0.282824 0.981925 0.142403
H10   H     H_    0.653215 0.724736 0.765212 0.160493
H11   H     H_    0.707806 0.039508 0.512698 0.178199
N1    N     N_2   0.947230 0.542220 0.528320 -0.214143
N2    N     N_2   0.052770 0.457780 0.471680 -0.219680
O1    O     O_R   0.383920 0.714220 0.492660 -0.583013
O2    O     O_R   0.685730 0.742660 0.511730 -0.597295
O3    O     O_R   0.275440 0.478800 0.636790 -0.582975
O4    O     O_R   0.577250 0.507240 0.655860 -0.575456
O5    O     O_R   0.314270 0.257340 0.488270 -0.585022
O6    O     O_R   0.616080 0.285780 0.507340 -0.578246
O7    O     O_R   0.422750 0.492760 0.344140 -0.584251
O8    O     O_R   0.724560 0.521200 0.363210 -0.585256
C21   C     C_3   0.967923 0.758253 0.223205 -0.412023
C22   C     C_3   0.122421 0.669812 0.225312 -0.741168
H12   H     H_    0.208450 0.728654 0.281041 0.244904
H13   H     H_    0.060976 0.545273 0.247876 0.250159
H14   H     H_    0.216734 0.671808 0.148379 0.242237
H15   H     H_    0.037322 0.877710 0.192300 0.182994
H16   H     H_    0.891721 0.780638 0.302009 0.216969

loop_
_geom_bond_atom_site_label_1
_geom_bond_atom_site_label_2
_ccdc_geom_bond_type
C21   H15   S    
C2    C4    A    
C6    C7    A    
Cu1   N2    S    
C13   C14   S    
C15   O7    A    
C19   C20   A    
C1    C11   S    
C1    O2    A    
C4    C8    A    
C19   H9    S    
C12   O4    A    
C2    C3    A    
C15   O8    A    
C18   H7    S    
C20   H8    S    
Cu1   Cu2   S    
C11   C13   D    
C6    H4    S    
Cu1   O5    S    
C10   C12   S    
H3    N2    S    
C14   O6    A    
C3    C10   A    
Cu2   O4    S    
C9    C17   A    
C9    C16   A    
C10   C18   A    
C18   C19   A    
C3    C7    A    
C22   H13   S    
C12   O3    A    
C5    C6    A    
Cu2   N1    S    
Cu2   O6    S    
C14   O5    A    
Cu1   O7    S    
C11   H11   S    
C21   C22   S    
C13   H1    S    
C8    H6    S    
C15   C17   S    
N1    N2    D    
C16   H5    S    
C22   H14   S    
C21   H16   S    
Cu1   O1    S    
C9    C21   S    
C7    H10   S    
C22   H12   S    
Cu2   O2    S    
C2    C20   A    
Cu2   O8    S    
H2    N1    S    
Cu1   O3    S    
C8    C17   A    
C1    O1    A    
C4    C5    A    
C5    C16   A    
