data_str_m4_o22_o22_f0_acs.sym.132
_audit_creation_date              2012-12-11T15:06:54-0500
_audit_creation_method            fapswitch 2.2
_symmetry_space_group_name_H-M    P1
_symmetry_Int_Tables_number       1
_space_group_crystal_system       triclinic
_cell_length_a                    19.578855
_cell_length_b                    11.351318
_cell_length_c                    18.731691
_cell_angle_alpha                 90.000011
_cell_angle_beta                  90.210425
_cell_angle_gamma                 89.999989
_cell_volume                      4163.01174799

loop_
_atom_site_label
_atom_site_type_symbol
_atom_type_description
_atom_site_fract_x
_atom_site_fract_y
_atom_site_fract_z
_atom_type_partial_charge
C1    C     C_R   0.761244 0.523535 0.639140 0.537308
C2    C     C_R   0.238756 0.523535 0.360860 0.537308
C3    C     C_R   0.261244 0.023535 0.639140 0.537308
C4    C     C_R   0.738756 0.023535 0.360860 0.537308
C5    C     C_3   0.811136 0.130318 0.449211 -0.261272
C6    C     C_3   0.188864 0.130318 0.550789 -0.261272
C7    C     C_3   0.311136 0.630318 0.449211 -0.261272
C8    C     C_3   0.688864 0.630318 0.550789 -0.261272
C9    C     C_3   0.747146 0.056630 0.436754 0.067134
C10   C     C_3   0.252854 0.056630 0.563246 0.067134
C11   C     C_3   0.247146 0.556630 0.436754 0.067134
C12   C     C_3   0.752854 0.556630 0.563246 0.067134
C13   C     C_3   0.760013 0.090736 0.574120 0.066269
C14   C     C_3   0.239987 0.090736 0.425880 0.066268
C15   C     C_3   0.260013 0.590736 0.574120 0.066269
C16   C     C_3   0.739987 0.590736 0.425880 0.066268
C17   C     C_3   0.753397 0.958573 0.561829 -0.262347
C18   C     C_3   0.246603 0.958573 0.438170 -0.262347
C19   C     C_3   0.253397 0.458573 0.561829 -0.262347
C20   C     C_3   0.746603 0.458574 0.438170 -0.262347
C21   C     C_3   0.823258 0.133520 0.530176 -0.215055
C22   C     C_3   0.176742 0.133520 0.469824 -0.215055
C23   C     C_3   0.323258 0.633520 0.530176 -0.215055
C24   C     C_3   0.676742 0.633520 0.469824 -0.215055
C25   C     C_3   0.003733 0.205536 0.459037 -0.232400
C26   C     C_3   0.996267 0.205536 0.540962 -0.232400
C27   C     C_3   0.503733 0.705536 0.459037 -0.232400
C28   C     C_3   0.496266 0.705536 0.540962 -0.232400
C29   C     C_3   0.064775 0.406002 0.474515 -0.212278
C30   C     C_3   0.935225 0.406002 0.525485 -0.212278
C31   C     C_3   0.564775 0.906002 0.474515 -0.212278
C32   C     C_3   0.435225 0.906002 0.525485 -0.212278
C33   C     C_3   0.941389 0.390516 0.444464 -0.262360
C34   C     C_3   0.058611 0.390516 0.555536 -0.262360
C35   C     C_3   0.441389 0.890516 0.444464 -0.262360
C36   C     C_3   0.558611 0.890516 0.555536 -0.262359
C37   C     C_3   0.010536 0.333381 0.430967 0.064674
C38   C     C_3   0.989464 0.333381 0.569033 0.064674
C39   C     C_3   0.510536 0.833381 0.430967 0.064674
C40   C     C_3   0.489464 0.833381 0.569033 0.064674
C41   C     C_3   0.814840 0.004599 0.043474 -0.096462
C42   C     C_3   0.185160 0.004599 0.956525 -0.096462
C43   C     C_3   0.314840 0.504598 0.043474 -0.096463
C44   C     C_3   0.685160 0.504598 0.956526 -0.096463
C45   C     C_R   0.774013 0.121105 0.649417 0.537104
C46   C     C_R   0.225987 0.121105 0.350583 0.537104
C47   C     C_R   0.274013 0.621105 0.649417 0.537104
C48   C     C_R   0.725987 0.621105 0.350583 0.537104
C49   C     C_3   0.821883 0.029987 0.964706 -0.203027
C50   C     C_3   0.178117 0.029986 0.035294 -0.203027
C51   C     C_3   0.321883 0.529987 0.964706 -0.203028
C52   C     C_3   0.678117 0.529986 0.035294 -0.203028
C53   C     C_3   0.685153 0.030536 0.032361 -0.233412
C54   C     C_3   0.314847 0.030536 0.967639 -0.233412
C55   C     C_3   0.185153 0.530536 0.032361 -0.233412
C56   C     C_3   0.814847 0.530536 0.967639 -0.233412
C57   C     C_3   0.759809 0.200413 0.060883 -0.261747
C58   C     C_3   0.240190 0.200413 0.939116 -0.261747
C59   C     C_3   0.259810 0.700413 0.060883 -0.261747
C60   C     C_3   0.740190 0.700413 0.939117 -0.261747
C61   C     C_3   0.750536 0.069058 0.075118 0.068529
C62   C     C_3   0.249464 0.069058 0.924882 0.068528
C63   C     C_3   0.250536 0.569058 0.075118 0.068529
C64   C     C_3   0.749464 0.569058 0.924882 0.068528
C65   C     C_3   0.760521 0.102175 0.935656 0.049506
C66   C     C_3   0.239479 0.102176 0.064343 0.049507
C67   C     C_3   0.260521 0.602175 0.935656 0.049507
C68   C     C_3   0.739479 0.602175 0.064343 0.049507
C69   C     C_3   0.697026 0.027541 0.950254 -0.273245
C70   C     C_3   0.302974 0.027542 0.049746 -0.273244
C71   C     C_3   0.197026 0.527541 0.950254 -0.273245
C72   C     C_3   0.802974 0.527541 0.049746 -0.273245
C73   C     C_3   0.751073 0.218043 0.979274 -0.223161
C74   C     C_3   0.248926 0.218043 0.020726 -0.223161
C75   C     C_3   0.251073 0.718043 0.979274 -0.223161
C76   C     C_3   0.748927 0.718043 0.020726 -0.223161
C77   C     C_3   0.005833 0.483218 0.040079 -0.224092
C78   C     C_3   0.994167 0.483218 0.959921 -0.224092
C79   C     C_3   0.505832 0.983218 0.040079 -0.224092
C80   C     C_3   0.494167 0.983218 0.959921 -0.224092
C81   C     C_3   0.063878 0.280111 0.026033 -0.212421
C82   C     C_3   0.936122 0.280111 0.973967 -0.212420
C83   C     C_3   0.563878 0.780111 0.026033 -0.212420
C84   C     C_3   0.436122 0.780111 0.973967 -0.212420
C85   C     C_3   0.941690 0.301515 0.055223 -0.264269
C86   C     C_3   0.058311 0.301515 0.944776 -0.264269
C87   C     C_3   0.441690 0.801515 0.055223 -0.264269
C88   C     C_3   0.558311 0.801516 0.944776 -0.264269
C89   C     C_R   0.968985 0.342236 0.644968 0.534213
C90   C     C_R   0.031015 0.342236 0.355032 0.534213
C91   C     C_R   0.468985 0.842236 0.644968 0.534213
C92   C     C_R   0.531015 0.842236 0.355032 0.534213
C93   C     C_3   0.011392 0.355195 0.069122 0.060840
C94   C     C_3   0.988608 0.355195 0.930878 0.060840
C95   C     C_3   0.511392 0.855195 0.069122 0.060840
C96   C     C_3   0.488608 0.855195 0.930878 0.060840
C97   C     C_R   0.759694 0.534911 0.848285 0.532237
C98   C     C_R   0.240306 0.534911 0.151715 0.532238
C99   C     C_R   0.259694 0.034911 0.848285 0.532237
C100  C     C_R   0.740306 0.034911 0.151715 0.532238
C101  C     C_R   0.773772 0.131491 0.858495 0.532810
C102  C     C_R   0.226228 0.131491 0.141504 0.532810
C103  C     C_R   0.273772 0.631491 0.858495 0.532810
C104  C     C_R   0.726228 0.631491 0.141504 0.532809
C105  C     C_R   0.967757 0.354026 0.854302 0.532744
C106  C     C_R   0.032243 0.354026 0.145698 0.532744
C107  C     C_R   0.467757 0.854026 0.854302 0.532744
C108  C     C_R   0.532243 0.854026 0.145698 0.532744
C109  C     C_3   0.687238 0.132323 0.465011 -0.233979
C110  C     C_3   0.312762 0.132323 0.534989 -0.233979
C111  C     C_3   0.187238 0.632323 0.465011 -0.233979
C112  C     C_3   0.812762 0.632323 0.534989 -0.233979
C113  C     C_3   0.692382 0.145505 0.546146 -0.231679
C114  C     C_3   0.307618 0.145505 0.453854 -0.231679
C115  C     C_3   0.192382 0.645505 0.546146 -0.231679
C116  C     C_3   0.807618 0.645505 0.453854 -0.231679
C117  C     C_3   0.756658 0.939511 0.480649 -0.216637
C118  C     C_3   0.243342 0.939511 0.519351 -0.216637
C119  C     C_3   0.256658 0.439511 0.480649 -0.216637
C120  C     C_3   0.743342 0.439511 0.519351 -0.216637
Cr1   Cr    Cr6+3 0.885690 0.492860 0.745310 0.991717
Cr2   Cr    Cr6+3 0.114310 0.492860 0.254690 0.991717
Cr3   Cr    Cr6+3 0.385690 0.992860 0.745310 0.991717
Cr4   Cr    Cr6+3 0.614310 0.992860 0.254690 0.991717
Cr5   Cr    Cr6+3 0.729880 0.332270 0.748190 0.987065
Cr6   Cr    Cr6+3 0.270120 0.332270 0.251810 0.987065
Cr7   Cr    Cr6+3 0.229880 0.832270 0.748190 0.987065
Cr8   Cr    Cr6+3 0.770120 0.832270 0.251810 0.987065
Cr9   Cr    Cr6+3 0.888120 0.178590 0.753010 0.990146
Cr10  Cr    Cr6+3 0.111880 0.178590 0.246990 0.990147
Cr11  Cr    Cr6+3 0.388120 0.678590 0.753010 0.990147
Cr12  Cr    Cr6+3 0.611880 0.678590 0.246990 0.990147
H1    H     H_    0.637987 0.096446 0.449739 0.131377
H2    H     H_    0.362013 0.096446 0.550261 0.131377
H3    H     H_    0.137987 0.596446 0.449739 0.131377
H4    H     H_    0.862013 0.596446 0.550261 0.131377
H5    H     H_    0.863962 0.068066 0.540789 0.126571
H6    H     H_    0.136038 0.068066 0.459211 0.126571
H7    H     H_    0.363962 0.568066 0.540789 0.126571
H8    H     H_    0.636038 0.568066 0.459211 0.126571
H9    H     H_    0.809397 0.909325 0.469990 0.124700
H10   H     H_    0.190603 0.909325 0.530010 0.124700
H11   H     H_    0.309397 0.409325 0.469990 0.124700
H12   H     H_    0.690603 0.409325 0.530010 0.124700
H13   H     H_    0.795659 0.910658 0.588916 0.120172
H14   H     H_    0.204341 0.910658 0.411083 0.120172
H15   H     H_    0.295658 0.410658 0.588916 0.120172
H16   H     H_    0.704341 0.410658 0.411083 0.120172
H17   H     H_    0.046101 0.151033 0.442081 0.130433
H18   H     H_    0.953899 0.151033 0.557919 0.130433
H19   H     H_    0.546101 0.651033 0.442081 0.130433
H20   H     H_    0.453899 0.651033 0.557919 0.130433
H21   H     H_    0.958864 0.162318 0.434459 0.106550
H22   H     H_    0.041136 0.162318 0.565541 0.106550
H23   H     H_    0.458864 0.662318 0.434459 0.106550
H24   H     H_    0.541136 0.662318 0.565541 0.106550
H25   H     H_    0.616806 0.891242 0.456039 0.112390
H26   H     H_    0.383194 0.891242 0.543961 0.112390
H27   H     H_    0.116806 0.391242 0.456039 0.112390
H28   H     H_    0.883194 0.391242 0.543961 0.112390
H29   H     H_    0.600536 0.835332 0.576877 0.103597
H30   H     H_    0.399464 0.835332 0.423123 0.103597
H31   H     H_    0.100536 0.335332 0.576877 0.103597
H32   H     H_    0.899464 0.335332 0.423123 0.103597
H33   H     H_    0.938175 0.477405 0.417470 0.121577
H34   H     H_    0.061825 0.477405 0.582530 0.121577
H35   H     H_    0.438175 0.977405 0.417470 0.121577
H36   H     H_    0.561825 0.977405 0.582530 0.121577
H37   H     H_    0.947557 0.499633 0.535785 0.129526
H38   H     H_    0.052443 0.499633 0.464215 0.129526
H39   H     H_    0.447557 0.999633 0.535785 0.129526
H40   H     H_    0.552443 0.999633 0.464215 0.129526
H41   H     H_    0.802103 0.913520 0.047497 0.146055
H42   H     H_    0.197898 0.913520 0.952502 0.146056
H43   H     H_    0.302102 0.413520 0.047497 0.146056
H44   H     H_    0.697898 0.413520 0.952503 0.146056
H45   H     H_    0.687935 0.220509 0.439755 0.106597
H46   H     H_    0.312065 0.220509 0.560245 0.106597
H47   H     H_    0.187935 0.720509 0.439755 0.106597
H48   H     H_    0.812065 0.720509 0.560245 0.106597
H49   H     H_    0.868960 0.077549 0.954439 0.145537
H50   H     H_    0.131039 0.077548 0.045562 0.145537
H51   H     H_    0.368960 0.577549 0.954439 0.145537
H52   H     H_    0.631040 0.577549 0.045561 0.145537
H53   H     H_    0.826910 0.945246 0.935137 0.109271
H54   H     H_    0.173091 0.945246 0.064863 0.109270
H55   H     H_    0.326910 0.445246 0.935137 0.109271
H56   H     H_    0.673090 0.445246 0.064863 0.109271
H57   H     H_    0.663794 0.948751 0.052403 0.114280
H58   H     H_    0.336205 0.948752 0.947596 0.114280
H59   H     H_    0.163794 0.448752 0.052403 0.114280
H60   H     H_    0.836206 0.448751 0.947596 0.114280
H61   H     H_    0.705162 0.936278 0.931456 0.109684
H62   H     H_    0.294839 0.936278 0.068544 0.109684
H63   H     H_    0.205162 0.436278 0.931456 0.109685
H64   H     H_    0.794839 0.436278 0.068544 0.109684
H65   H     H_    0.721067 0.252777 0.090345 0.104579
H66   H     H_    0.278932 0.252777 0.909655 0.104579
H67   H     H_    0.221068 0.752777 0.090345 0.104579
H68   H     H_    0.778932 0.752777 0.909655 0.104579
H69   H     H_    0.810754 0.229798 0.078899 0.118369
H70   H     H_    0.189245 0.229797 0.921101 0.118370
H71   H     H_    0.310755 0.729797 0.078899 0.118370
H72   H     H_    0.689245 0.729797 0.921101 0.118370
H73   H     H_    0.781610 0.290170 0.959234 0.101622
H74   H     H_    0.218389 0.290171 0.040766 0.101622
H75   H     H_    0.281610 0.790171 0.959234 0.101622
H76   H     H_    0.718390 0.790171 0.040766 0.101622
H77   H     H_    0.696848 0.242080 0.971046 0.116572
H78   H     H_    0.303152 0.242080 0.028953 0.116572
H79   H     H_    0.196848 0.742080 0.971046 0.116572
H80   H     H_    0.803152 0.742080 0.028953 0.116572
H81   H     H_    0.646645 0.099561 0.042750 0.122785
H82   H     H_    0.353355 0.099562 0.957250 0.122785
H83   H     H_    0.146645 0.599562 0.042749 0.122785
H84   H     H_    0.853355 0.599561 0.957250 0.122785
H85   H     H_    0.687420 0.237569 0.561556 0.137606
H86   H     H_    0.312579 0.237569 0.438444 0.137606
H87   H     H_    0.187420 0.737569 0.561556 0.137606
H88   H     H_    0.812580 0.737569 0.438444 0.137606
H89   H     H_    0.652106 0.064066 0.921465 0.112643
H90   H     H_    0.347894 0.064067 0.078535 0.112643
H91   H     H_    0.152106 0.564066 0.921465 0.112643
H92   H     H_    0.847895 0.564066 0.078535 0.112643
H93   H     H_    0.050871 0.535034 0.052787 0.131848
H94   H     H_    0.949129 0.535034 0.947213 0.131848
H95   H     H_    0.550871 0.035034 0.052787 0.131848
H96   H     H_    0.449129 0.035034 0.947213 0.131848
H97   H     H_    0.963392 0.530906 0.066675 0.115292
H98   H     H_    0.036608 0.530907 0.933324 0.115292
H99   H     H_    0.463392 0.030906 0.066676 0.115292
H100  H     H_    0.536608 0.030907 0.933324 0.115292
H101  H     H_    0.615266 0.788443 0.046193 0.112054
H102  H     H_    0.384734 0.788443 0.953807 0.112055
H103  H     H_    0.115266 0.288441 0.046193 0.112055
H104  H     H_    0.884734 0.288443 0.953807 0.112055
H105  H     H_    0.599447 0.859762 0.925483 0.109090
H106  H     H_    0.400553 0.859761 0.074517 0.109090
H107  H     H_    0.099447 0.359762 0.925483 0.109090
H108  H     H_    0.900553 0.359761 0.074517 0.109090
H109  H     H_    0.938320 0.219227 0.085077 0.112427
H110  H     H_    0.061681 0.219228 0.914922 0.112426
H111  H     H_    0.438320 0.719228 0.085077 0.112427
H112  H     H_    0.561681 0.719229 0.914922 0.112426
H113  H     H_    0.950430 0.187293 0.964412 0.119596
H114  H     H_    0.049570 0.187293 0.035587 0.119596
H115  H     H_    0.450430 0.687293 0.964412 0.119597
H116  H     H_    0.549571 0.687293 0.035588 0.119597
H117  H     H_    0.648150 0.102192 0.571763 0.106572
H118  H     H_    0.351850 0.102192 0.428237 0.106572
H119  H     H_    0.148150 0.602193 0.571763 0.106572
H120  H     H_    0.851850 0.602192 0.428237 0.106572
H121  H     H_    0.722452 0.869085 0.463587 0.108876
H122  H     H_    0.277548 0.869085 0.536413 0.108876
H123  H     H_    0.222452 0.369085 0.463587 0.108876
H124  H     H_    0.777548 0.369084 0.536413 0.108876
H125  H     H_    0.704899 0.924718 0.584081 0.104113
H126  H     H_    0.295101 0.924718 0.415919 0.104113
H127  H     H_    0.204899 0.424718 0.584081 0.104113
H128  H     H_    0.795101 0.424718 0.415919 0.104113
H129  H     H_    0.855526 0.089712 0.421957 0.122217
H130  H     H_    0.144474 0.089712 0.578043 0.122217
H131  H     H_    0.355526 0.589712 0.421957 0.122217
H132  H     H_    0.644474 0.589712 0.578043 0.122217
H133  H     H_    0.804691 0.220322 0.427419 0.103936
H134  H     H_    0.195309 0.220322 0.572581 0.103936
H135  H     H_    0.304691 0.720322 0.427419 0.103936
H136  H     H_    0.695309 0.720322 0.572581 0.103936
H137  H     H_    0.841914 0.219485 0.547850 0.113267
H138  H     H_    0.158086 0.219485 0.452150 0.113267
H139  H     H_    0.341914 0.719485 0.547850 0.113267
H140  H     H_    0.658086 0.719485 0.452150 0.113267
O1    O     O_R   0.957210 0.449410 0.665480 -0.533312
O2    O     O_R   0.042790 0.449410 0.334520 -0.533312
O3    O     O_R   0.457210 0.949410 0.665480 -0.533312
O4    O     O_R   0.542790 0.949410 0.334520 -0.533312
O5    O     O_R   0.736260 0.212010 0.826560 -0.509445
O6    O     O_R   0.263740 0.212010 0.173440 -0.509445
O7    O     O_R   0.236260 0.712010 0.826560 -0.509444
O8    O     O_R   0.763740 0.712010 0.173440 -0.509445
O9    O     O_R   0.832520 0.095300 0.836000 -0.536089
O10   O     O_R   0.167480 0.095300 0.164000 -0.536090
O11   O     O_R   0.332520 0.595300 0.836000 -0.536090
O12   O     O_R   0.667480 0.595300 0.164000 -0.536089
O13   O     O_R   0.946380 0.253940 0.826940 -0.513650
O14   O     O_R   0.053620 0.253940 0.173060 -0.513650
O15   O     O_R   0.446380 0.753940 0.826940 -0.513650
O16   O     O_R   0.553620 0.753940 0.173060 -0.513650
O17   O     O_3   0.834560 0.334570 0.748840 -0.271213
O18   O     O_3   0.165440 0.334570 0.251160 -0.271214
O19   O     O_3   0.334560 0.834570 0.748840 -0.271213
O20   O     O_3   0.665440 0.834570 0.251160 -0.271214
O21   O     O_R   0.820730 0.541240 0.668250 -0.514891
O22   O     O_R   0.179270 0.541240 0.331750 -0.514891
O23   O     O_R   0.320730 0.041240 0.668250 -0.514891
O24   O     O_R   0.679270 0.041240 0.331750 -0.514891
O25   O     O_R   0.714240 0.455060 0.663710 -0.534371
O26   O     O_R   0.285760 0.455060 0.336290 -0.534371
O27   O     O_R   0.214240 0.955060 0.663710 -0.534371
O28   O     O_R   0.785760 0.955060 0.336290 -0.534371
O29   O     O_R   0.736780 0.204870 0.675910 -0.515629
O30   O     O_R   0.263220 0.204870 0.324090 -0.515629
O31   O     O_R   0.236780 0.704870 0.675910 -0.515629
O32   O     O_R   0.763220 0.704870 0.324090 -0.515629
O33   O     O_R   0.833070 0.087590 0.673490 -0.530028
O34   O     O_R   0.166930 0.087590 0.326510 -0.530028
O35   O     O_R   0.333070 0.587590 0.673490 -0.530028
O36   O     O_R   0.666930 0.587590 0.326510 -0.530028
O37   O     O_R   0.946890 0.246800 0.676300 -0.512992
O38   O     O_R   0.053110 0.246800 0.323700 -0.512993
O39   O     O_R   0.446890 0.746800 0.676300 -0.512992
O40   O     O_R   0.553110 0.746800 0.323700 -0.512993
O41   O     O_R   0.956650 0.457120 0.827980 -0.531306
O42   O     O_R   0.043350 0.457120 0.172020 -0.531306
O43   O     O_R   0.456650 0.957120 0.827980 -0.531306
O44   O     O_R   0.543350 0.957120 0.172020 -0.531306
O45   O     O_R   0.820220 0.548390 0.818890 -0.509693
O46   O     O_R   0.179780 0.548390 0.181110 -0.509694
O47   O     O_R   0.320220 0.048390 0.818890 -0.509693
O48   O     O_R   0.679780 0.048390 0.181110 -0.509694
O49   O     O_R   0.713680 0.462770 0.826210 -0.532985
O50   O     O_R   0.286320 0.462770 0.173790 -0.532985
O51   O     O_R   0.213680 0.962770 0.826210 -0.532985
O52   O     O_R   0.786320 0.962770 0.173790 -0.532986
C121  C     C_3   0.884282 0.013263 0.083872 -0.395813
H141  H     H_    0.928227 0.032578 0.048635 0.097343
H142  H     H_    0.881729 0.077846 0.128082 0.154204
H143  H     H_    0.897086 0.926961 0.108693 0.145639
C122  C     C_3   0.115718 0.013263 0.916128 -0.395811
H144  H     H_    0.071773 0.032583 0.951365 0.097342
H145  H     H_    0.118271 0.077842 0.871916 0.154206
H146  H     H_    0.102912 0.926958 0.891311 0.145635
C123  C     C_3   0.384282 0.513261 0.083871 -0.395814
H147  H     H_    0.428227 0.532575 0.048635 0.097343
H148  H     H_    0.381730 0.577842 0.128082 0.154205
H149  H     H_    0.397086 0.426958 0.108691 0.145638
C124  C     C_3   0.615718 0.513261 0.916129 -0.395813
H150  H     H_    0.571773 0.532578 0.951365 0.097343
H151  H     H_    0.618270 0.577842 0.871917 0.154206
H152  H     H_    0.602913 0.426958 0.891310 0.145636

loop_
_geom_bond_atom_site_label_1
_geom_bond_atom_site_label_2
_ccdc_geom_bond_type
C78   H94   S    
C5    H133  S    
C82   C94   S    
C119  H11   S    
C120  H12   S    
C21   H5    S    
C53   C69   S    
C104  O8    A    
C56   H60   S    
C124  H150  S    
C43   C63   S    
C123  H147  S    
C44   C64   S    
Cr6   O6    S    
Cr11  O35   S    
C84   H115  S    
C112  H4    S    
C63   C98   S    
C51   H51   S    
Cr2   O2    S    
C19   H127  S    
C35   C39   S    
C31   H40   S    
C28   C40   S    
C72   H92   S    
C36   H36   S    
C30   C38   S    
C113  H85   S    
C75   H75   S    
C56   C72   S    
C45   O33   A    
C8    H132  S    
C18   C118  S    
C81   C86   S    
C83   C88   S    
C87   H106  S    
C48   O32   A    
C89   O1    A    
C41   C49   S    
Cr8   O28   S    
Cr1   O45   S    
Cr2   O42   S    
Cr3   O47   S    
Cr4   O48   S    
C26   C38   S    
Cr10  O34   S    
C14   C114  S    
Cr11  O39   S    
C60   C76   S    
C24   H8    S    
Cr8   O52   S    
C55   H59   S    
C30   H37   S    
C88   H112  S    
C54   C70   S    
C48   O36   A    
C68   C72   S    
C23   H139  S    
C69   H61   S    
C13   C21   S    
C99   O47   A    
C79   H99   S    
C31   H25   S    
C64   C97   S    
C36   H29   S    
C15   C115  S    
C20   C120  S    
C124  H152  S    
C123  H149  S    
C101  O5    A    
C54   H82   S    
C57   H65   S    
C59   C63   S    
C52   H52   S    
Cr4   O20   S    
C72   H64   S    
C57   C61   S    
C82   C85   S    
Cr6   O50   S    
C77   H97   S    
Cr11  O19   S    
C60   C64   S    
Cr9   O13   S    
C13   C45   S    
C102  O6    A    
C78   C94   S    
C91   O3    A    
C69   H89   S    
C109  H1    S    
C95   C108  S    
C60   H68   S    
C62   C99   S    
C107  O43   A    
C5    C21   S    
C58   H70   S    
C79   H95   S    
C110  H46   S    
C31   C36   S    
C47   O35   A    
C4    O28   A    
C97   O45   A    
Cr5   O17   S    
C90   O38   A    
Cr1   O21   S    
C84   H102  S    
Cr2   O18   S    
C65   C101  S    
Cr10  O14   S    
Cr3   O23   S    
Cr11  O11   S    
C67   C103  S    
C66   C70   S    
C37   C90   S    
C24   H140  S    
C73   H77   S    
C55   H83   S    
C115  H119  S    
C111  H47   S    
C113  H117  S    
C25   H17   S    
C57   C73   S    
C121  H142  S    
C53   C61   S    
C60   H72   S    
C83   H101  S    
C55   C63   S    
C6    H134  S    
C56   C64   S    
C7    H131  S    
Cr7   O51   S    
C43   C123  S    
C42   C62   S    
C112  H48   S    
Cr5   O29   S    
C76   H80   S    
C122  H145  S    
C50   H50   S    
C1    C12   S    
Cr9   O33   S    
C114  H86   S    
C2    C11   S    
Cr3   O3    S    
C6    H130  S    
C42   H42   S    
Cr9   O37   S    
C25   C26   S    
C105  O13   A    
C107  O15   A    
C5    C9    S    
C108  O16   A    
C109  H45   S    
C93   C106  S    
C71   H63   S    
C8    C12   S    
C90   O2    A    
C51   C67   S    
C7    H135  S    
C42   C50   S    
C49   H49   S    
Cr2   O46   S    
Cr3   O43   S    
C110  H2    S    
C61   C100  S    
C67   C75   S    
C17   H125  S    
C50   H54   S    
C112  C116  S    
C58   C74   S    
Cr10  O38   S    
C41   H41   S    
C53   H81   S    
C54   H58   S    
C81   H114  S    
C33   H33   S    
C44   H44   S    
C68   C76   S    
C1    O21   A    
C98   O46   A    
C85   H108  S    
C14   C22   S    
C3    O23   A    
C27   C39   S    
C7    C23   S    
C8    C24   S    
C40   C91   S    
C101  O9    A    
C56   H84   S    
Cr7   O27   S    
C99   O51   A    
Cr8   O20   S    
C49   H53   S    
C44   C124  S    
C57   H69   S    
C52   H56   S    
Cr7   O7    S    
C4    C9    S    
Cr4   O24   S    
C53   H57   S    
Cr8   O8    S    
C86   H110  S    
C58   C62   S    
C5    H129  S    
C88   C96   S    
C94   C105  S    
C77   H93   S    
C82   H104  S    
C80   H100  S    
C12   C112  S    
C21   H137  S    
C14   C46   S    
C77   C78   S    
C15   C19   S    
C75   H79   S    
C1    O25   A    
C92   O40   A    
C6    C22   S    
C66   C102  S    
C42   C122  S    
C73   H73   S    
Cr6   O18   S    
Cr2   O22   S    
C103  O7    A    
Cr3   O19   S    
C46   O34   A    
C82   H113  S    
C17   C117  S    
C19   C119  S    
C27   H23   S    
C81   H103  S    
C2    O22   A    
Cr12  O36   S    
C16   C116  S    
C124  H151  S    
C76   H76   S    
C123  H148  S    
C9    C109  S    
C25   H21   S    
C26   H18   S    
C105  O41   A    
C54   C62   S    
C18   H14   S    
C11   C111  S    
C29   C34   S    
C108  O44   A    
C33   C37   S    
C41   C61   S    
C30   H28   S    
C79   C95   S    
Cr5   O25   S    
Cr6   O30   S    
C70   H62   S    
C85   H109  S    
C86   H107  S    
C80   H96   S    
Cr12  O12   S    
C32   H39   S    
C91   O39   A    
C100  O52   A    
C39   C92   S    
C27   H19   S    
C106  O14   A    
C14   C18   S    
C68   C104  S    
C119  H123  S    
C17   H13   S    
C6    C10   S    
C13   C17   S    
C78   H98   S    
C22   H6    S    
Cr5   O49   S    
C19   H15   S    
C104  O12   A    
C43   C51   S    
Cr5   O5    S    
C65   C69   S    
C77   C93   S    
C70   H90   S    
C10   C110  S    
C67   C71   S    
C121  H141  S    
C111  H3    S    
Cr1   O1    S    
C18   H126  S    
C51   H55   S    
C3    O27   A    
C59   H71   S    
C29   C37   S    
C34   H34   S    
C66   C74   S    
C43   H43   S    
C9    C117  S    
C122  H144  S    
C102  O10   A    
C117  H9    S    
C84   C87   S    
C15   C47   S    
C8    H136  S    
C11   C119  S    
C16   C48   S    
C29   H27   S    
C7    C11   S    
C38   C89   S    
C49   C65   S    
C74   H78   S    
C23   H7    S    
Cr7   O31   S    
Cr8   O32   S    
Cr1   O41   S    
C114  H118  S    
C65   C73   S    
C41   C121  S    
C84   C96   S    
Cr4   O44   S    
C118  H122  S    
C25   C37   S    
C12   C120  S    
C59   H67   S    
C83   H116  S    
C35   H35   S    
Cr12  O20   S    
C55   C71   S    
C29   H38   S    
C80   C96   S    
C86   C94   S    
C52   C68   S    
C16   C20   S    
C22   H138  S    
C15   C23   S    
Cr9   O17   S    
C16   C24   S    
C115  H87   S    
C85   C93   S    
C2    O26   A    
C103  O11   A    
C32   H26   S    
C35   H30   S    
C71   H91   S    
C117  H121  S    
C120  H124  S    
C32   C35   S    
C36   C40   S    
C33   H32   S    
C34   H31   S    
C97   O49   A    
Cr7   O19   S    
C116  H120  S    
C87   C95   S    
C121  H143  S    
C46   O30   A    
C10   C118  S    
C81   C93   S    
C87   H111  S    
C83   C95   S    
Cr10  O18   S    
C20   H16   S    
Cr12  O40   S    
Cr9   O9    S    
C50   C66   S    
C100  O48   A    
C20   H128  S    
C28   H20   S    
C45   O29   A    
C122  H146  S    
C26   H22   S    
C116  H88   S    
C92   O4    A    
C59   C75   S    
C106  O42   A    
C74   H74   S    
C110  C114  S    
C58   H66   S    
C30   C33   S    
C34   C38   S    
C96   C107  S    
C47   O31   A    
C4    O24   A    
C118  H10   S    
C89   O37   A    
Cr6   O26   S    
C109  C113  S    
Cr1   O17   S    
Cr10  O10   S    
C3    C10   S    
Cr11  O15   S    
Cr4   O4    S    
C44   C52   S    
Cr12  O16   S    
C88   H105  S    
C31   C39   S    
C32   C40   S    
C79   C80   S    
C98   O50   A    
C27   C28   S    
C28   H24   S    
C111  C115  S    
C13   C113  S    
