data_str_m2_o1_o16_f0_pcu.sym.109
_audit_creation_date              2012-12-10T17:57:22-0500
_audit_creation_method            fapswitch 2.2
_symmetry_space_group_name_H-M    P1
_symmetry_Int_Tables_number       1
_space_group_crystal_system       triclinic
_cell_length_a                    9.708786
_cell_length_b                    10.85769
_cell_length_c                    13.581123
_cell_angle_alpha                 91.861979
_cell_angle_beta                  74.706283
_cell_angle_gamma                 87.242084
_cell_volume                      1377.83670768

loop_
_atom_site_label
_atom_site_type_symbol
_atom_type_description
_atom_site_fract_x
_atom_site_fract_y
_atom_site_fract_z
_atom_type_partial_charge
C1    C     C_R   0.499318 0.737606 0.497356 0.795791
C2    C     C_R   0.442517 0.552144 0.975980 0.041614
C3    C     C_R   0.484669 0.558543 0.868499 -0.074589
C4    C     C_R   0.546906 0.532332 0.029847 -0.079831
C5    C     C_R   0.691729 0.539159 0.976763 -0.117941
C6    C     C_R   0.728532 0.582942 0.876844 0.327344
C7    C     C_R   0.622101 0.599069 0.824687 0.387491
C8    C     C_R   0.513771 0.492946 0.131353 0.366617
C9    C     C_R   0.760963 0.510748 0.132272 -0.174878
C10   C     C_R   0.382667 0.534375 0.812522 -0.187213
C11   C     C_R   0.630504 0.929765 0.490854 -0.206121
C12   C     C_R   0.424182 0.509579 0.699238 0.827707
C13   C     C_R   0.634316 0.057373 0.486867 -0.223195
C14   C     C_R   0.505684 0.128086 0.501199 -0.074009
C15   C     C_R   0.376417 0.068387 0.520960 -0.042115
C16   C     C_R   0.384220 0.946203 0.481802 0.009021
C17   C     C_R   0.502540 0.872310 0.491834 -0.102107
C18   C     C_R   0.904475 0.598240 0.537367 -0.053101
C19   C     C_R   0.051514 0.601458 0.535795 0.090268
C20   C     C_R   0.093739 0.400256 0.463047 -0.089893
C21   C     C_R   0.947596 0.400169 0.461081 0.482310
C22   C     C_R   0.502062 0.262615 0.501551 0.791829
C23   C     C_R   0.575766 0.499039 0.300796 0.791736
C24   C     C_R   0.795860 0.503419 0.025596 0.366183
C25   C     C_R   0.617350 0.500738 0.187451 -0.239596
C26   C     C_R   0.237426 0.534002 0.868542 0.370795
C27   C     C_R   0.196553 0.573429 0.971206 -0.171492
C28   C     C_R   0.298021 0.576899 0.025833 -0.172688
Cu1   Cu    Cu3+1 0.359340 0.499980 0.500000 0.951818
Cu2   Cu    Cu3+1 0.640660 0.500020 0.500000 0.984720
H1    H     H_    0.735006 0.100162 0.478267 0.191549
H2    H     H_    0.831854 0.677141 0.566836 0.172116
H3    H     H_    0.165263 0.322187 0.428211 0.145978
H4    H     H_    0.264328 0.602017 0.106160 0.202676
H5    H     H_    0.085674 0.592872 0.010779 0.182481
H6    H     H_    0.728357 0.876701 0.489508 0.163786
N1    N     N_R   0.147940 0.499970 0.499970 -0.209682
N2    N     N_R   0.852060 0.500060 0.499990 -0.206379
O1    O     O_R   0.381250 0.680340 0.500010 -0.582814
O2    O     O_R   0.618820 0.680370 0.500010 -0.577993
O3    O     O_R   0.323240 0.499950 0.650980 -0.593886
O4    O     O_R   0.560810 0.499980 0.650980 -0.514998
O5    O     O_R   0.381180 0.319630 0.499990 -0.593575
O6    O     O_R   0.618750 0.319660 0.499990 -0.581251
O7    O     O_R   0.439190 0.500020 0.349020 -0.571491
O8    O     O_R   0.676760 0.500050 0.349020 -0.585137
C29   C     C_R   0.868205 0.556350 0.181246 0.154621
C30   C     C_R   0.860088 0.681950 0.212009 -0.134829
C31   C     C_R   0.954455 0.726024 0.264718 -0.154069
C32   C     C_R   0.058273 0.645342 0.285689 -0.139778
C33   C     C_R   0.066178 0.520602 0.255008 -0.103704
C34   C     C_R   0.971287 0.475563 0.203521 -0.147342
H7    H     H_    0.779024 0.744918 0.196702 0.108466
H8    H     H_    0.946388 0.822340 0.289639 0.132969
H9    H     H_    0.132576 0.678934 0.325735 0.160876
H10   H     H_    0.144845 0.457929 0.272135 0.189821
H11   H     H_    0.976463 0.377919 0.183046 0.120931
C35   C     C_R   0.278103 0.098912 0.623563 0.126507
C36   C     C_R   0.315447 0.058355 0.711026 -0.129914
C37   C     C_R   0.231089 0.095768 0.808655 -0.166011
C38   C     C_R   0.109072 0.174150 0.819956 -0.141914
C39   C     C_R   0.070800 0.214586 0.733534 -0.152208
C40   C     C_R   0.154811 0.176911 0.635883 -0.113167
H12   H     H_    0.411018 0.999158 0.703512 0.145469
H13   H     H_    0.260637 0.064353 0.875515 0.136855
H14   H     H_    0.043737 0.202935 0.895529 0.160094
H15   H     H_    0.975719 0.274741 0.742273 0.179291
H16   H     H_    0.122771 0.207728 0.570496 0.125720
C41   C     C_R   0.329651 0.926038 0.388904 0.126071
C42   C     C_R   0.401969 0.842742 0.307166 -0.113701
C43   C     C_R   0.358072 0.833950 0.217272 -0.149579
C44   C     C_R   0.242156 0.908056 0.206506 -0.130086
C45   C     C_R   0.169852 0.991361 0.285678 -0.163727
C46   C     C_R   0.213511 0.000927 0.375640 -0.147526
H17   H     H_    0.495789 0.786863 0.310057 0.103640
H18   H     H_    0.415419 0.770552 0.155308 0.130589
H19   H     H_    0.208414 0.900939 0.136767 0.130330
H20   H     H_    0.080051 0.049175 0.277253 0.151370
H21   H     H_    0.156085 0.067402 0.434702 0.132863
C47   C     C_R   0.085471 0.720127 0.577973 0.139575
C48   C     C_R   0.103277 0.725068 0.676805 -0.053191
C49   C     C_R   0.058605 0.830125 0.741356 -0.152008
C50   C     C_R   0.991884 0.930672 0.708066 -0.080823
C51   C     C_R   0.986172 0.932641 0.606692 -0.158151
C52   C     C_R   0.036384 0.829165 0.541099 -0.219038
H22   H     H_    0.131791 0.643336 0.709114 0.225896
H23   H     H_    0.064689 0.829447 0.819791 0.132047
H24   H     H_    0.942424 0.005905 0.761389 0.144324
H25   H     H_    0.936041 0.011630 0.580379 0.138551
H26   H     H_    0.016896 0.828005 0.466239 0.129596
O9    O     O_3   0.908547 0.300056 0.412645 -0.788422
H27   H     H_    0.837478 0.330918 0.377791 0.359411
O10   O     O_3   0.864302 0.617294 0.830689 -0.708145
H28   H     H_    0.907991 0.647065 0.884580 0.354147
O11   O     O_3   0.923169 0.448625 0.968311 -0.690081
H29   H     H_    0.969032 0.401018 0.013251 0.314180
O12   O     O_3   0.387618 0.437061 0.169358 -0.752727
H30   H     H_    0.405681 0.369995 0.212998 0.327324
O13   O     O_3   0.134097 0.493431 0.825979 -0.678338
H31   H     H_    0.172272 0.413837 0.789597 0.352488
O14   O     O_3   0.641571 0.672947 0.741716 -0.725833
H32   H     H_    0.726933 0.721187 0.736840 0.342433

loop_
_geom_bond_atom_site_label_1
_geom_bond_atom_site_label_2
_ccdc_geom_bond_type
O10   H28   S    
C23   O7    A    
C45   C46   A    
O11   H29   S    
C4    C8    A    
C48   C49   A    
C9    C25   A    
C26   C27   A    
C47   C52   A    
C39   H15   S    
C11   H6    S    
C18   C19   A    
C3    C7    A    
C5    C6    A    
C31   H8    S    
Cu2   N2    S    
C33   H10   S    
C31   C32   A    
C12   O4    A    
C19   N1    A    
C44   H19   S    
C38   H14   S    
C22   O6    A    
C21   N2    A    
C29   C30   A    
C16   C17   A    
C45   H20   S    
C42   C43   A    
C48   H22   S    
C1    O2    A    
C26   O13   S    
C10   C26   A    
C50   H24   S    
C28   H4    S    
C36   C37   A    
C23   O8    A    
C13   C14   A    
Cu1   O5    S    
C8    C25   A    
Cu2   O6    S    
C19   C47   S    
Cu2   O8    S    
O12   H30   S    
C30   H7    S    
C15   C16   A    
C33   C34   A    
O14   H32   S    
C51   C52   A    
C24   O11   S    
O9    H27   S    
C44   C45   A    
C27   H5    S    
C35   C36   A    
Cu1   O7    S    
C37   C38   A    
C2    C4    A    
C8    O12   S    
Cu1   Cu2   S    
C50   C51   A    
C6    O10   S    
Cu1   O1    S    
C39   C40   A    
C32   C33   A    
C36   H12   S    
Cu2   O2    S    
C41   C46   A    
C29   C34   A    
C10   C12   S    
C20   H3    S    
C30   C31   A    
C37   H13   S    
C9    C29   S    
C46   H21   S    
C15   C35   S    
C18   H2    S    
C51   H25   S    
C42   H17   S    
C12   O3    A    
C21   O9    S    
C35   C40   A    
C40   H16   S    
C11   C17   A    
Cu1   O3    S    
C13   H1    S    
C16   C41   S    
C47   C48   A    
C52   H26   S    
C9    C24   A    
C6    C7    A    
C1    C17   S    
C32   H9    S    
O13   H31   S    
C14   C22   S    
C38   C39   A    
C2    C3    A    
C18   N2    A    
C43   C44   A    
C3    C10   A    
C20   N1    A    
C11   C13   A    
C43   H18   S    
C5    C24   A    
C23   C25   S    
C41   C42   A    
C34   H11   S    
C1    O1    A    
C4    C5    A    
C20   C21   A    
C49   C50   A    
C7    O14   S    
Cu1   N1    S    
C27   C28   A    
C14   C15   A    
Cu2   O4    S    
C2    C28   A    
C22   O5    A    
C49   H23   S    
