data_str_m9_o13_o13_f0_sra.sym.13
_audit_creation_date              2012-12-11T14:41:04-0500
_audit_creation_method            fapswitch 2.2
_symmetry_space_group_name_H-M    P1
_symmetry_Int_Tables_number       1
_space_group_crystal_system       triclinic
_cell_length_a                    6.951608
_cell_length_b                    17.888587
_cell_length_c                    18.914025
_cell_angle_alpha                 90.09762
_cell_angle_beta                  90.016356
_cell_angle_gamma                 89.99903
_cell_volume                      2352.03956207

loop_
_atom_site_label
_atom_site_type_symbol
_atom_type_description
_atom_site_fract_x
_atom_site_fract_y
_atom_site_fract_z
_atom_type_partial_charge
O1    O     O_R   0.377350 0.828520 0.186660 -0.527158
O2    O     O_R   0.622650 0.171480 0.813340 -0.527157
O3    O     O_R   0.122650 0.171480 0.686660 -0.531311
O4    O     O_R   0.877350 0.828520 0.313340 -0.531304
O5    O     O_R   0.877350 0.671480 0.313340 -0.532059
O6    O     O_R   0.122650 0.328520 0.686660 -0.532098
O7    O     O_R   0.622650 0.328520 0.813340 -0.527310
O8    O     O_R   0.377350 0.671480 0.186660 -0.527301
O9    O     O_R   0.707090 0.671930 0.178410 -0.533246
O10   O     O_R   0.292910 0.328070 0.821590 -0.533234
O11   O     O_R   0.792910 0.328070 0.678410 -0.533729
O12   O     O_R   0.207090 0.671930 0.321590 -0.533720
O13   O     O_R   0.207090 0.828070 0.321590 -0.530135
O14   O     O_R   0.792910 0.171930 0.678410 -0.530105
O15   O     O_R   0.292910 0.171930 0.821590 -0.540125
O16   O     O_R   0.707090 0.828070 0.178410 -0.540122
C1    C     C_R   0.538886 0.646031 0.161703 0.789036
C2    C     C_R   0.461114 0.353969 0.838297 0.789032
C3    C     C_R   0.962153 0.353147 0.660851 0.795988
C4    C     C_R   0.037846 0.646852 0.339147 0.795872
C5    C     C_R   0.039010 0.854182 0.338106 0.790130
C6    C     C_R   0.960991 0.145817 0.661895 0.790122
C7    C     C_R   0.462192 0.146826 0.839105 0.787039
C8    C     C_R   0.537807 0.853174 0.160895 0.787028
O17   O     O_3   0.543850 0.750000 0.294270 -0.374055
O18   O     O_3   0.456150 0.250000 0.705730 -0.374075
O19   O     O_3   0.956150 0.250000 0.794270 -0.373891
O20   O     O_3   0.043850 0.750000 0.205730 -0.373891
V1    V     V_3+5 0.818700 0.750000 0.241790 1.587037
V2    V     V_3+5 0.181300 0.250000 0.758210 1.586987
V3    V     V_3+5 0.681300 0.250000 0.741790 1.597697
V4    V     V_3+5 0.318700 0.750000 0.258210 1.597716
C9    C     C_R   0.972801 0.416747 0.610403 -0.214217
C10   C     C_R   0.027190 0.583259 0.389603 -0.214277
C11   C     C_R   0.533545 0.582911 0.110464 -0.219191
C12   C     C_R   0.466456 0.417088 0.889537 -0.219191
C13   C     C_R   0.474157 0.083358 0.889699 -0.216429
C14   C     C_R   0.525839 0.916641 0.110301 -0.216428
C15   C     C_R   0.034365 0.917272 0.389435 -0.218193
C16   C     C_R   0.965646 0.082733 0.610560 -0.218218
C17   C     C_R   0.100310 0.453194 0.419176 0.360585
C18   C     C_R   0.899615 0.546806 0.580828 0.360613
C19   C     C_R   0.464922 0.551541 0.914630 0.366217
C20   C     C_R   0.535070 0.448457 0.085371 0.366216
C21   C     C_R   0.566133 0.049820 0.083908 0.366291
C22   C     C_R   0.433837 0.950180 0.916093 0.366291
C23   C     C_R   0.939207 0.949070 0.583624 0.364384
C24   C     C_R   0.060779 0.050938 0.416363 0.364378
C25   C     C_R   0.084109 0.510762 0.368028 -0.158761
C26   C     C_R   0.915847 0.489240 0.631978 -0.158818
C27   C     C_R   0.457619 0.491753 0.865240 -0.149264
C28   C     C_R   0.542375 0.508246 0.134761 -0.149276
C29   C     C_R   0.574171 0.989726 0.132706 -0.153126
C30   C     C_R   0.425794 0.010275 0.867296 -0.153131
C31   C     C_R   0.938201 0.008262 0.633767 -0.153898
C32   C     C_R   0.061763 0.991743 0.366222 -0.153899
C33   C     C_R   0.962238 0.595160 0.460014 0.346750
C34   C     C_R   0.037741 0.404849 0.539993 0.346625
C35   C     C_R   0.480085 0.402529 0.963118 0.354899
C36   C     C_R   0.519921 0.597469 0.036882 0.354895
C37   C     C_R   0.467280 0.904169 0.039233 0.353285
C38   C     C_R   0.532726 0.095829 0.960766 0.353280
C39   C     C_R   0.993794 0.097355 0.537565 0.354644
C40   C     C_R   0.006285 0.902654 0.462432 0.354614
C41   C     C_R   0.965242 0.535740 0.510255 -0.052673
C42   C     C_R   0.034694 0.464263 0.489749 -0.052684
C43   C     C_R   0.503565 0.462480 0.012210 -0.056821
C44   C     C_R   0.496433 0.537518 0.987791 -0.056823
C45   C     C_R   0.474724 0.963364 0.988806 -0.055687
C46   C     C_R   0.525267 0.036635 0.011194 -0.055689
C47   C     C_R   0.013729 0.037342 0.488407 -0.056351
C48   C     C_R   0.986297 0.962667 0.511585 -0.056354
O21   O     O_3   0.100290 0.335074 0.518316 -0.574929
H1    H     H_    0.149395 0.306376 0.559044 0.291030
O22   O     O_3   0.899717 0.664936 0.481704 -0.574850
H2    H     H_    0.851110 0.693738 0.440964 0.290993
O23   O     O_3   0.529031 0.669926 0.011596 -0.571183
H3    H     H_    0.597649 0.702293 0.045713 0.278822
O24   O     O_3   0.470990 0.330072 0.988404 -0.571180
H4    H     H_    0.402387 0.297701 0.954286 0.278820
O25   O     O_3   0.595188 0.165570 0.982773 -0.573149
H5    H     H_    0.638329 0.195672 0.942054 0.288259
O26   O     O_3   0.404845 0.834424 0.017225 -0.573145
H6    H     H_    0.361707 0.804321 0.057943 0.288259
O27   O     O_3   0.999565 0.829980 0.487101 -0.571295
H7    H     H_    0.074229 0.797011 0.455278 0.278406
O28   O     O_3   0.000664 0.170031 0.512904 -0.571237
H8    H     H_    0.926191 0.203035 0.544752 0.278490
C49   C     C_2   0.887973 0.508961 0.708441 0.411623
H9    H     H_    0.871322 0.566848 0.724359 0.066350
O29   O     O_2   0.889101 0.462126 0.755268 -0.521613
C50   C     C_2   0.111985 0.491038 0.291565 0.411599
H10   H     H_    0.128542 0.433147 0.275645 0.066372
O30   O     O_2   0.110973 0.537876 0.244739 -0.521624
C51   C     C_2   0.552001 0.490568 0.211889 0.411583
H11   H     H_    0.495213 0.437963 0.231286 0.048387
O31   O     O_2   0.625427 0.533218 0.254499 -0.522558
C52   C     C_2   0.447989 0.509433 0.788112 0.411546
H12   H     H_    0.504757 0.562041 0.768717 0.048376
O32   O     O_2   0.374582 0.466780 0.745501 -0.522560
C53   C     C_2   0.361698 0.994875 0.793291 0.411403
H13   H     H_    0.268819 0.947548 0.782464 0.052908
O33   O     O_2   0.414714 0.033039 0.743518 -0.516631
C54   C     C_2   0.638227 0.005131 0.206715 0.411398
H14   H     H_    0.731074 0.052466 0.217548 0.052910
O34   O     O_2   0.585213 0.966961 0.256484 -0.516641
C55   C     C_2   0.083787 0.010464 0.289545 0.401879
H15   H     H_    0.054685 0.066758 0.271218 0.061884
O35   O     O_2   0.134973 0.964372 0.245799 -0.517209
C56   C     C_2   0.916129 0.989536 0.710441 0.401871
H16   H     H_    0.945215 0.933241 0.728767 0.061896
O36   O     O_2   0.864920 0.035625 0.754187 -0.517203
O37   O     O_3   0.180171 0.385244 0.400581 -0.577896
H17   H     H_    0.291316 0.394796 0.369037 0.284685
O38   O     O_3   0.819718 0.614750 0.599421 -0.577882
H18   H     H_    0.708575 0.605189 0.630963 0.284683
O39   O     O_3   0.439179 0.624422 0.892288 -0.576328
H19   H     H_    0.343654 0.625095 0.853430 0.293956
O40   O     O_3   0.560802 0.375577 0.107715 -0.576329
H20   H     H_    0.656317 0.374902 0.146576 0.293950
O41   O     O_3   0.595850 0.122365 0.106764 -0.576011
H21   H     H_    0.538190 0.128417 0.154318 0.293853
O42   O     O_3   0.404093 0.877637 0.893237 -0.576011
H22   H     H_    0.461721 0.871585 0.845678 0.293858
O43   O     O_3   0.891857 0.877263 0.604121 -0.576332
H23   H     H_    0.786562 0.879958 0.639326 0.293925
O44   O     O_3   0.108085 0.122746 0.395856 -0.576329
H24   H     H_    0.213362 0.120053 0.360644 0.293925

loop_
_geom_bond_atom_site_label_1
_geom_bond_atom_site_label_2
_ccdc_geom_bond_type
O23   H3    S    
O28   H8    S    
C53   H13   S    
O21   H1    S    
C30   C53   S    
C51   H11   S    
O14   V3    S    
C12   C35   A    
C19   C27   A    
C54   O34   D    
O25   H5    S    
O42   H22   S    
O5    C4    A    
O27   H7    S    
O6    C3    A    
O11   C3    A    
C9    C34   A    
C16   C39   A    
O20   V1    S    
O10   C2    A    
C29   C54   S    
O38   H18   S    
C38   C46   A    
C28   C51   S    
C56   H16   S    
C22   C45   A    
O13   V4    S    
C35   C43   A    
C34   C42   A    
O26   H6    S    
C19   C44   A    
C18   C41   A    
C8    C14   S    
C55   H15   S    
C49   O29   D    
O4    V1    S    
O9    V1    S    
C14   C37   A    
C4    C10   S    
C20   C28   A    
O17   V4    S    
O15   C7    A    
O11   V3    S    
O18   V3    S    
C53   O33   D    
O12   V4    S    
O19   V2    S    
C55   O35   D    
C22   C30   A    
C17   C25   A    
C54   H14   S    
C23   O43   S    
O5    V1    S    
O17   V1    S    
C36   O23   S    
O7    V3    S    
O19   V3    S    
C43   C44   A    
O8    V4    S    
O20   V4    S    
C37   O26   S    
C35   O24   S    
C20   O40   S    
C21   O41   S    
C9    C26   A    
C7    C13   S    
O1    V4    S    
C11   C36   A    
O3    V2    S    
O22   H2    S    
C32   C55   S    
C15   C40   A    
C10   C33   A    
O10   V2    S    
C26   C49   S    
C15   C32   A    
C5    C15   S    
O7    C2    A    
C6    C16   S    
O12   C4    A    
C50   O30   D    
O13   C5    A    
O41   H21   S    
C12   C27   A    
C18   C26   A    
C13   C30   A    
O9    C1    A    
O6    V2    S    
C38   O25   S    
C19   O39   S    
O18   V2    S    
C52   O32   D    
C31   C56   S    
C3    C9    S    
O43   H23   S    
C22   O42   S    
C25   C50   S    
O44   H24   S    
C40   O27   S    
O2    C7    A    
O15   V2    S    
C23   C31   A    
O37   H17   S    
C37   C45   A    
C24   C32   A    
C10   C25   A    
C39   O28   S    
C21   C46   A    
C39   C47   A    
C20   C43   A    
C16   C31   A    
O40   H20   S    
C51   O31   D    
C17   C42   A    
C1    C11   S    
O8    C1    A    
C33   O22   S    
O16   V1    S    
C47   C48   A    
C41   C42   A    
O39   H19   S    
C24   O44   S    
O4    C5    A    
O14   C6    A    
C14   C29   A    
C27   C52   S    
C17   O37   S    
C50   H10   S    
C40   C48   A    
C45   C46   A    
C56   O36   D    
C23   C48   A    
C21   C29   A    
O24   H4    S    
C18   O38   S    
C36   C44   A    
O1    C8    A    
O16   C8    A    
C52   H12   S    
C11   C28   A    
C13   C38   A    
O2    V3    S    
O3    C6    A    
C24   C47   A    
C49   H9    S    
C2    C12   S    
C34   O21   S    
C33   C41   A    
