data_str_m4_o7_o7_f0_acs.sym.51
_audit_creation_date              2012-12-11T16:26:27-0500
_audit_creation_method            fapswitch 2.2
_symmetry_space_group_name_H-M    P1
_symmetry_Int_Tables_number       1
_space_group_crystal_system       triclinic
_cell_length_a                    14.055064
_cell_length_b                    14.039912
_cell_length_c                    31.555919
_cell_angle_alpha                 89.912594
_cell_angle_beta                  90.041409
_cell_angle_gamma                 119.922021
_cell_volume                      5396.95616301

loop_
_atom_site_label
_atom_site_type_symbol
_atom_type_description
_atom_site_fract_x
_atom_site_fract_y
_atom_site_fract_z
_atom_type_partial_charge
C1    C     C_R   0.565691 0.445740 0.809922 0.575612
C2    C     C_R   0.446333 0.564897 0.190584 0.576077
C3    C     C_2   0.007157 0.671269 0.671855 0.651778
C4    C     C_2   0.672695 0.994481 0.830145 0.644893
C5    C     C_2   0.325272 0.324627 0.666265 0.649222
C6    C     C_2   0.675151 0.997012 0.333651 0.642221
C7    C     C_2   0.994331 0.665570 0.172059 0.651601
C8    C     C_2   0.326679 0.322273 0.330286 0.643033
C9    C     C_2   0.674938 0.999636 0.166208 0.642822
C10   C     C_2   0.996385 0.667628 0.328192 0.648208
C11   C     C_2   0.327766 0.322695 0.170138 0.642552
C12   C     C_2   0.967760 0.706192 0.082200 0.670228
C13   C     C_R   0.434686 0.880667 0.309744 0.579253
C14   C     C_2   0.718642 0.028859 0.426076 0.661351
C15   C     C_2   0.313769 0.272640 0.078412 0.686785
C16   C     C_2   0.970407 0.707254 0.418102 0.667722
C17   C     C_2   0.718839 0.031140 0.074064 0.663619
C18   C     C_2   0.313065 0.273166 0.422631 0.683576
C19   C     C_2   0.689879 0.966471 0.576721 0.684086
C20   C     C_2   0.045958 0.739633 0.917312 0.674197
C21   C     C_2   0.281967 0.309598 0.573868 0.664532
C22   C     C_2   0.682392 0.954220 0.921937 0.685991
C23   C     C_2   0.033604 0.737781 0.581797 0.668949
C24   C     C_R   0.121768 0.555419 0.189654 0.566334
C25   C     C_2   0.281326 0.309770 0.925923 0.664320
C26   C     C_2   0.090840 0.382831 0.128264 0.678542
C27   C     C_2   0.327180 0.991501 0.354612 0.657129
C28   C     C_2   0.662889 0.675104 0.145839 0.641878
C29   C     C_2   0.089148 0.381343 0.371457 0.678894
C30   C     C_2   0.322823 0.985311 0.143770 0.659233
C31   C     C_2   0.664468 0.671000 0.353063 0.643370
C32   C     C_2   0.336731 0.011724 0.645930 0.640966
C33   C     C_2   0.902858 0.289761 0.872881 0.676894
C34   C     C_2   0.679257 0.660833 0.643143 0.647730
C35   C     C_1   0.008683 0.580631 0.018636 0.147422
C36   C     C_2   0.332046 0.997571 0.851466 0.660546
C37   C     C_2   0.908229 0.291748 0.628162 0.669485
C38   C     C_2   0.680387 0.659732 0.857023 0.658965
C39   C     C_2   0.089624 0.437335 0.040037 0.626342
C40   C     C_2   0.359369 0.008140 0.446367 0.638456
C41   C     C_2   0.657513 0.626799 0.056190 0.616508
C42   C     C_2   0.089172 0.435484 0.459741 0.625807
C43   C     C_2   0.356594 0.002420 0.052277 0.637544
C44   C     C_2   0.657547 0.627878 0.443427 0.618459
C45   C     C_2   0.345113 0.978178 0.555434 0.610616
C46   C     C_1   0.538983 0.993250 0.481765 0.118115
C47   C     C_2   0.893495 0.345041 0.960754 0.621460
C48   C     C_2   0.644891 0.642775 0.551990 0.610483
C49   C     C_2   0.342801 0.972382 0.943488 0.641975
C50   C     C_2   0.899072 0.344670 0.540019 0.622993
C51   C     C_2   0.644981 0.642639 0.947958 0.634290
C52   C     C_1   0.460881 0.449218 0.020941 0.121705
C53   C     C_1   0.008725 0.579112 0.481287 0.145572
C54   C     C_1   0.538432 0.990368 0.017459 0.114885
C55   C     C_1   0.461763 0.450359 0.479189 0.123957
C56   C     C_1   0.539637 0.993704 0.520081 0.120595
C57   C     C_R   0.878359 0.433704 0.689697 0.568529
C58   C     C_1   0.988875 0.571123 0.981355 0.151840
C59   C     C_1   0.462358 0.450494 0.517500 0.118728
C60   C     C_1   0.538658 0.990097 0.979087 0.119443
C61   C     C_1   0.988728 0.569669 0.518529 0.147928
C62   C     C_1   0.461487 0.449740 0.982619 0.119131
C63   C     C_R   0.935586 0.475885 0.851721 -0.051800
C64   C     C_R   0.529615 0.047592 0.651946 -0.047461
C65   C     C_R   0.521426 0.467346 0.849820 -0.049804
C66   C     C_R   0.936306 0.476615 0.648396 -0.052431
C67   C     C_R   0.528687 0.044883 0.847327 -0.045198
C68   C     C_R   0.553509 0.118055 0.809291 0.579749
C69   C     C_R   0.521053 0.468029 0.650340 -0.049732
C70   C     C_R   0.480263 0.948775 0.349108 -0.047930
C71   C     C_R   0.063321 0.540260 0.148446 -0.055432
C72   C     C_R   0.470440 0.516465 0.347627 -0.046357
C73   C     C_R   0.479047 0.947443 0.150342 -0.049402
C74   C     C_R   0.063121 0.539948 0.351485 -0.054776
C75   C     C_R   0.470561 0.517233 0.152284 -0.046949
C76   C     C_R   0.979930 0.588650 0.862180 0.013548
C77   C     C_R   0.604324 0.014380 0.637602 0.031813
C78   C     C_R   0.414849 0.390824 0.864967 0.002055
C79   C     C_R   0.565580 0.445915 0.690130 0.577502
C80   C     C_R   0.977680 0.588760 0.637480 0.016333
C81   C     C_R   0.603233 0.011385 0.861616 0.031693
C82   C     C_R   0.414154 0.392016 0.635292 0.005956
C83   C     C_R   0.586701 0.978330 0.364369 0.003429
C84   C     C_R   0.022395 0.611503 0.137619 0.014926
C85   C     C_R   0.395371 0.408474 0.361896 0.027938
C86   C     C_R   0.586010 0.978619 0.135290 0.004687
C87   C     C_R   0.023251 0.611949 0.362455 0.014932
C88   C     C_R   0.396172 0.408826 0.138384 0.028122
C89   C     C_R   0.995737 0.621652 0.905343 0.037995
C90   C     C_R   0.878103 0.433452 0.810356 0.570394
C91   C     C_R   0.607946 0.993753 0.593640 0.049831
C92   C     C_R   0.392029 0.386813 0.909026 0.033303
C93   C     C_R   0.991711 0.620901 0.594200 0.038648
C94   C     C_R   0.605071 0.988077 0.905420 0.050149
C95   C     C_R   0.392147 0.386999 0.591080 0.037999
C96   C     C_R   0.608940 0.997151 0.408504 0.033019
C97   C     C_R   0.007776 0.629462 0.094393 0.040394
C98   C     C_R   0.392901 0.383196 0.405738 0.043963
C99   C     C_R   0.608403 0.997171 0.091140 0.037321
C100  C     C_R   0.008904 0.629515 0.405703 0.035349
C101  C     C_R   0.553701 0.118627 0.690529 0.576617
C102  C     C_R   0.393534 0.382970 0.094682 0.047589
C103  C     C_R   0.965212 0.541093 0.937325 -0.034320
C104  C     C_R   0.530411 0.996968 0.565911 -0.051106
C105  C     C_R   0.474355 0.461108 0.936815 -0.050449
C106  C     C_R   0.965120 0.540187 0.562597 -0.037899
C107  C     C_R   0.528550 0.992592 0.933184 -0.051756
C108  C     C_R   0.474841 0.461336 0.563317 -0.051215
C109  C     C_R   0.526829 0.991309 0.435917 -0.051435
C110  C     C_R   0.031809 0.573488 0.062702 -0.040801
C111  C     C_R   0.470909 0.463229 0.433382 -0.050144
C112  C     C_R   0.446335 0.564648 0.309367 0.576516
C113  C     C_R   0.525920 0.989126 0.063352 -0.051449
C114  C     C_R   0.032002 0.572399 0.437265 -0.041710
C115  C     C_R   0.470847 0.462553 0.066720 -0.049980
C116  C     C_R   0.927922 0.430265 0.926785 0.012496
C117  C     C_R   0.439881 0.001454 0.582844 0.021298
C118  C     C_R   0.570159 0.551115 0.920003 0.015141
C119  C     C_R   0.931332 0.430342 0.573611 0.012702
C120  C     C_R   0.437686 0.996599 0.916088 0.015952
C121  C     C_R   0.570205 0.551555 0.580112 0.021636
C122  C     C_R   0.432570 0.988148 0.418694 0.012722
C123  C     C_R   0.434392 0.880341 0.190086 0.579053
C124  C     C_R   0.063364 0.495549 0.073679 0.012183
C125  C     C_R   0.561681 0.557899 0.416348 0.020670
C126  C     C_R   0.430572 0.984154 0.080262 0.014637
C127  C     C_R   0.062823 0.494075 0.426190 0.013312
C128  C     C_R   0.561408 0.557835 0.083399 0.021500
C129  C     C_R   0.922409 0.400260 0.883936 -0.001238
C130  C     C_R   0.438074 0.024051 0.626248 0.008857
C131  C     C_R   0.591758 0.556586 0.876158 0.001052
C132  C     C_R   0.925984 0.401352 0.616591 0.001645
C133  C     C_R   0.435447 0.018069 0.872451 -0.000640
C134  C     C_R   0.121660 0.555301 0.310308 0.566786
C135  C     C_R   0.591438 0.557315 0.623985 0.004269
C136  C     C_R   0.411514 0.971571 0.374786 -0.001579
C137  C     C_R   0.071700 0.473936 0.116688 0.001574
C138  C     C_R   0.562897 0.583072 0.373036 0.008207
C139  C     C_R   0.409169 0.967771 0.124182 -0.001512
C140  C     C_R   0.070784 0.472777 0.383151 0.000791
C141  C     C_R   0.562313 0.584360 0.126519 0.009518
C142  C     C_2   0.010687 0.671211 0.827594 0.639430
C143  C     C_2   0.671914 0.995143 0.669273 0.654189
C144  C     C_2   0.326898 0.319991 0.834374 0.637367
Cr1   Cr    Cr6+3 0.504240 0.249200 0.750000 1.128867
Cr2   Cr    Cr6+3 0.744960 0.495760 0.750000 1.121585
Cr3   Cr    Cr6+3 0.750800 0.255040 0.750000 1.132902
Cr4   Cr    Cr6+3 0.249200 0.504240 0.250000 1.131386
Cr5   Cr    Cr6+3 0.495760 0.744960 0.250000 1.132327
Cr6   Cr    Cr6+3 0.255040 0.750800 0.250000 1.119819
H1    H     H_    0.004918 0.801915 0.804058 0.329599
H2    H     H_    0.815084 0.998652 0.179169 0.345972
H3    H     H_    0.014944 0.808940 0.303980 0.330204
H4    H     H_    0.184670 0.186762 0.184836 0.328214
H5    H     H_    0.873410 0.772075 0.096451 0.367532
H6    H     H_    0.807876 0.993697 0.466487 0.361246
H7    H     H_    0.184763 0.181707 0.040509 0.344259
H8    H     H_    0.876745 0.774333 0.404496 0.371097
H9    H     H_    0.812883 0.992758 0.038094 0.341610
H10   H     H_    0.193402 0.184479 0.464784 0.364017
H11   H     H_    0.761209 0.873127 0.581374 0.369098
H12   H     H_    0.815444 0.003825 0.684572 0.328238
H13   H     H_    0.046188 0.852689 0.956806 0.346253
H14   H     H_    0.119893 0.257891 0.573947 0.374172
H15   H     H_    0.806559 0.985145 0.961566 0.347163
H16   H     H_    0.131301 0.897706 0.595308 0.370949
H17   H     H_    0.188591 0.182414 0.964377 0.341630
H18   H     H_    0.032894 0.236683 0.157898 0.366224
H19   H     H_    0.292390 0.068130 0.308070 0.355837
H20   H     H_    0.780881 0.720493 0.190283 0.352625
H21   H     H_    0.030515 0.235641 0.341565 0.367276
H22   H     H_    0.285121 0.062260 0.189107 0.354684
H23   H     H_    0.194258 0.172979 0.821282 0.349320
H24   H     H_    0.779200 0.711593 0.307580 0.354949
H25   H     H_    0.220625 0.937866 0.690974 0.351355
H26   H     H_    0.962205 0.200779 0.844932 0.370040
H27   H     H_    0.719298 0.778066 0.687541 0.355671
H28   H     H_    0.226623 0.925774 0.802876 0.352336
H29   H     H_    0.968549 0.204785 0.657195 0.364190
H30   H     H_    0.721146 0.778991 0.813336 0.355444
H31   H     H_    0.075790 0.295353 0.019134 0.374868
H32   H     H_    0.205291 0.953887 0.467426 0.369965
H33   H     H_    0.764398 0.778895 0.034729 0.343574
H34   H     H_    0.993845 0.796763 0.696306 0.328424
H35   H     H_    0.076672 0.293550 0.480142 0.373589
H36   H     H_    0.202298 0.945929 0.031021 0.359478
H37   H     H_    0.762517 0.780515 0.464803 0.348994
H38   H     H_    0.242415 0.028912 0.533967 0.357165
H39   H     H_    0.896779 0.212826 0.983782 0.378780
H40   H     H_    0.799198 0.737200 0.530208 0.364285
H41   H     H_    0.237883 0.020629 0.964374 0.341951
H42   H     H_    0.904866 0.212826 0.518267 0.382189
H43   H     H_    0.799980 0.739155 0.968765 0.363390
H44   H     H_    0.816120 0.001459 0.816194 0.329360
H45   H     H_    0.186063 0.183187 0.679641 0.345720
H46   H     H_    0.812668 0.990884 0.320932 0.346920
H47   H     H_    0.010762 0.805472 0.196691 0.329368
H48   H     H_    0.183112 0.186988 0.315618 0.329078
O1    O     O_R   0.480350 0.140770 0.796330 -0.479647
O2    O     O_R   0.140770 0.480350 0.203670 -0.468757
O3    O     O_R   0.046711 0.323701 0.042381 -0.616897
O4    O     O_2   0.396164 0.094882 0.465645 -0.459575
O5    O     O_R   0.248876 0.927888 0.450305 -0.587842
O6    O     O_2   0.705264 0.585522 0.038294 -0.469921
O7    O     O_R   0.693647 0.738627 0.051405 -0.593143
O8    O     O_2   0.150168 0.487299 0.489018 -0.478983
O9    O     O_R   0.046531 0.321924 0.457252 -0.615193
O10   O     O_2   0.392369 0.088798 0.032722 -0.457638
O11   O     O_R   0.246502 0.921055 0.048412 -0.593869
O12   O     O_2   0.706698 0.587854 0.461236 -0.470193
O13   O     O_R   0.519650 0.660420 0.296330 -0.477627
O14   O     O_R   0.691819 0.739304 0.448164 -0.591141
O15   O     O_2   0.295591 0.890012 0.537067 -0.470624
O16   O     O_R   0.312545 0.056759 0.550880 -0.591918
O17   O     O_2   0.831387 0.340533 0.988826 -0.476219
O18   O     O_R   0.930506 0.269314 0.960285 -0.619656
O19   O     O_2   0.610615 0.695373 0.532886 -0.464020
O20   O     O_R   0.754051 0.668488 0.547639 -0.602968
O21   O     O_2   0.295545 0.885112 0.962654 -0.475123
O22   O     O_R   0.307924 0.049289 0.947365 -0.577735
O23   O     O_2   0.836512 0.337939 0.511706 -0.476237
O24   O     O_R   0.339580 0.859230 0.203670 -0.473581
O25   O     O_R   0.938248 0.270724 0.541231 -0.646326
O26   O     O_2   0.610363 0.694403 0.967343 -0.456001
O27   O     O_R   0.754764 0.669905 0.951694 -0.593416
O28   O     O_R   0.514930 0.348530 0.793250 -0.475967
O29   O     O_R   0.833600 0.485070 0.706750 -0.485524
O30   O     O_R   0.651470 0.166400 0.793250 -0.474512
O31   O     O_R   0.514930 0.348530 0.706750 -0.475369
O32   O     O_R   0.833600 0.485070 0.793250 -0.484415
O33   O     O_R   0.651470 0.166400 0.706750 -0.475409
O34   O     O_R   0.348530 0.514930 0.293250 -0.474943
O35   O     O_R   0.660420 0.519650 0.703670 -0.471948
O36   O     O_R   0.485070 0.833600 0.206750 -0.473170
O37   O     O_R   0.166400 0.651470 0.293250 -0.485569
O38   O     O_R   0.348530 0.514930 0.206750 -0.474749
O39   O     O_R   0.485070 0.833600 0.293250 -0.474119
O40   O     O_R   0.166400 0.651470 0.206750 -0.485777
O41   O     O_3   0.666667 0.333333 0.750000 -0.296775
O42   O     O_3   0.333333 0.666667 0.250000 -0.296437
O43   O     O_2   0.061816 0.667488 0.796909 -0.435658
O44   O     O_R   0.979944 0.751656 0.829709 -0.620913
O45   O     O_2   0.631768 0.954457 0.703590 -0.433943
O46   O     O_R   0.859230 0.339580 0.796330 -0.468881
O47   O     O_R   0.779728 0.021764 0.660281 -0.649245
O48   O     O_2   0.321704 0.357445 0.799978 -0.432239
O49   O     O_R   0.249588 0.211691 0.844766 -0.612232
O50   O     O_2   0.063429 0.672018 0.701564 -0.429214
O51   O     O_R   0.968878 0.745952 0.670871 -0.624996
O52   O     O_2   0.635606 0.958585 0.794995 -0.436174
O53   O     O_R   0.778736 0.017316 0.840423 -0.649940
O54   O     O_2   0.324924 0.362930 0.701023 -0.432735
O55   O     O_R   0.241195 0.219201 0.655859 -0.613201
O56   O     O_2   0.676701 0.035344 0.298650 -0.433163
O57   O     O_R   0.480350 0.140770 0.703670 -0.476712
O58   O     O_R   0.757590 0.973527 0.344592 -0.609592
O59   O     O_2   0.937388 0.610567 0.201722 -0.428836
O60   O     O_R   0.034920 0.778907 0.171223 -0.625019
O61   O     O_2   0.365369 0.322605 0.295565 -0.438893
O62   O     O_R   0.219629 0.240298 0.339886 -0.642080
O63   O     O_2   0.674667 0.036762 0.201226 -0.433056
O64   O     O_R   0.760012 0.980001 0.155394 -0.612423
O65   O     O_2   0.939228 0.613801 0.298407 -0.431908
O66   O     O_R   0.038412 0.781181 0.329339 -0.623728
O67   O     O_2   0.366320 0.323707 0.204985 -0.436957
O68   O     O_R   0.660420 0.519650 0.796330 -0.474844
O69   O     O_R   0.221148 0.239895 0.160466 -0.648124
O70   O     O_2   0.005551 0.765298 0.051063 -0.469791
O71   O     O_R   0.887058 0.711193 0.106248 -0.638480
O72   O     O_2   0.799680 0.112427 0.413562 -0.423419
O73   O     O_R   0.728872 0.964165 0.457383 -0.613038
O74   O     O_2   0.313475 0.191421 0.092578 -0.441847
O75   O     O_R   0.238220 0.261528 0.047356 -0.641587
O76   O     O_2   0.009273 0.766082 0.449199 -0.450015
O77   O     O_R   0.889877 0.713454 0.394332 -0.637910
O78   O     O_2   0.797315 0.119102 0.084684 -0.427413
O79   O     O_R   0.859230 0.339580 0.703670 -0.467163
O80   O     O_R   0.732992 0.962607 0.045964 -0.619824
O81   O     O_2   0.307538 0.190832 0.407126 -0.438361
O82   O     O_R   0.244925 0.263782 0.456459 -0.636163
O83   O     O_2   0.749034 0.019245 0.547214 -0.477964
O84   O     O_R   0.699382 0.880440 0.594521 -0.625572
O85   O     O_2   0.123779 0.809773 0.897241 -0.448393
O86   O     O_R   0.005146 0.770399 0.951863 -0.633434
O87   O     O_2   0.271578 0.242511 0.547011 -0.453988
O88   O     O_R   0.190402 0.314756 0.588014 -0.614611
O89   O     O_2   0.682607 0.874134 0.906908 -0.441703
O90   O     O_R   0.140770 0.480350 0.296330 -0.469077
O91   O     O_R   0.755182 0.013989 0.954413 -0.648153
O92   O     O_2   0.996221 0.759743 0.550686 -0.453977
O93   O     O_R   0.115827 0.822884 0.605519 -0.637502
O94   O     O_2   0.201380 0.313296 0.912615 -0.427467
O95   O     O_R   0.268546 0.233380 0.956947 -0.626509
O96   O     O_2   0.173688 0.383674 0.116152 -0.474912
O97   O     O_R   0.012917 0.295788 0.152784 -0.603355
O98   O     O_2   0.233247 0.946884 0.368076 -0.407680
O99   O     O_R   0.356122 0.061034 0.319375 -0.619988
O100  O     O_2   0.698679 0.769510 0.133775 -0.437002
O101  O     O_R   0.519650 0.660420 0.203670 -0.477431
O102  O     O_R   0.713932 0.652172 0.179196 -0.610007
O103  O     O_2   0.171557 0.381302 0.383619 -0.475816
O104  O     O_R   0.011063 0.295058 0.346757 -0.602254
O105  O     O_2   0.228578 0.936617 0.130628 -0.412393
O106  O     O_R   0.350210 0.057194 0.178107 -0.618629
O107  O     O_2   0.705310 0.765744 0.365305 -0.438644
O108  O     O_R   0.710955 0.645052 0.318996 -0.610269
O109  O     O_2   0.297702 0.067458 0.633754 -0.440522
O110  O     O_R   0.288422 0.938428 0.679684 -0.609675
O111  O     O_2   0.818540 0.208258 0.884204 -0.479886
O112  O     O_R   0.339580 0.859230 0.296330 -0.473583
O113  O     O_R   0.982212 0.279919 0.849672 -0.602049
O114  O     O_2   0.773594 0.703306 0.630236 -0.435650
O115  O     O_R   0.653230 0.708389 0.676824 -0.613742
O116  O     O_2   0.278395 0.036938 0.865545 -0.405206
O117  O     O_R   0.297274 0.933599 0.814692 -0.616997
O118  O     O_2   0.824913 0.209415 0.616764 -0.479854
O119  O     O_R   0.987702 0.283589 0.652038 -0.610502
O120  O     O_2   0.775324 0.698926 0.868912 -0.417423
O121  O     O_R   0.654465 0.710141 0.824290 -0.616439
O122  O     O_2   0.150588 0.489477 0.010770 -0.477911

loop_
_geom_bond_atom_site_label_1
_geom_bond_atom_site_label_2
_ccdc_geom_bond_type
H17   O95   S    
C72   C112  S    
C91   C104  A    
C55   C59   T    
C64   C77   A    
H35   O9    S    
C23   O92   D    
C36   C133  S    
H48   O62   S    
C71   C137  A    
C27   C136  S    
Cr1   O1    S    
H21   O104  S    
C49   C120  S    
C13   C70   S    
C51   C118  S    
C120  C133  A    
H3    O66   S    
C118  C131  A    
C65   C131  A    
Cr3   O33   S    
H22   O106  S    
C111  C125  A    
C134  O90   A    
C17   O80   S    
C55   C111  S    
C69   C135  A    
C70   C136  A    
C16   O77   S    
H28   O117  S    
Cr3   O79   S    
C48   O19   D    
C47   C116  S    
C44   C125  S    
H32   O5    S    
Cr5   O13   S    
C124  C137  A    
C12   O71   S    
C14   O73   S    
Cr4   O2    S    
C13   O39   A    
C39   C124  S    
H39   O18   S    
C47   O18   S    
C100  C114  A    
C42   O9    S    
C121  C135  A    
C39   O122  D    
C122  C136  A    
C12   C97   S    
C60   C107  S    
H20   O102  S    
C40   O4    D    
C36   O116  D    
C105  C118  A    
C7    O59   D    
C3    O50   D    
C107  C120  A    
C40   C122  S    
C104  C117  A    
C52   C115  S    
Cr2   O29   S    
C77   C91   A    
C6    C83   S    
C25   O95   S    
C43   O10   D    
Cr4   O42   S    
H31   O3    S    
H42   O25   S    
C34   O115  S    
C88   C102  A    
C68   O30   A    
C125  C138  A    
C21   C95   S    
C96   C109  A    
H34   O51   S    
C103  C116  A    
H43   O27   S    
C5    C82   S    
C31   O107  D    
C74   C134  S    
C33   O111  D    
C43   O11   S    
C95   C108  A    
C18   O81   D    
C24   O2    A    
Cr4   O90   S    
H36   O11   S    
Cr4   O38   S    
C80   C93   A    
C2    C75   S    
C1    O28   A    
C32   O109  D    
C8    O62   S    
H25   O110  S    
C90   O46   A    
C27   O99   S    
H10   O82   S    
C57   C66   S    
C26   C137  S    
C12   O70   D    
C72   C85   A    
H8    O77   S    
H6    O73   S    
C49   O21   D    
C35   C58   T    
Cr3   O46   S    
C101  O57   A    
C23   O93   S    
C38   O121  S    
C5    O55   S    
C15   O75   S    
C79   O31   A    
C69   C82   A    
C75   C141  A    
C53   C61   T    
C73   C123  S    
C1    C65   S    
C20   O85   D    
C74   C87   A    
C21   O88   S    
C29   O104  S    
C72   C138  A    
Cr6   O112  S    
C89   C103  A    
C22   C94   S    
C5    O54   D    
C28   O100  D    
C19   O83   D    
C126  C139  A    
C1    O68   A    
C112  O13   A    
H27   O115  S    
C16   O76   D    
H4    O69   S    
C48   C121  S    
H38   O16   S    
C16   C100  S    
C113  C126  A    
C73   C139  A    
C78   C92   A    
C142  O44   S    
C74   C140  A    
C115  C128  A    
C23   C93   S    
C33   O113  S    
C77   C143  S    
C34   O114  D    
C78   C144  S    
C93   C106  A    
C123  O36   A    
C45   O15   D    
C9    O64   S    
Cr2   O41   S    
C41   O6    D    
Cr4   O34   S    
C2    O38   A    
H16   O93   S    
C64   C130  A    
C67   C81   A    
H33   O7    S    
C143  O45   D    
C69   C79   S    
C127  C140  A    
C15   O74   D    
C87   C100  A    
H2    O64   S    
C29   C140  S    
Cr1   O31   S    
C25   C92   S    
C30   C139  S    
H44   O53   S    
C3    O51   S    
H47   O60   S    
H41   O22   S    
Cr3   O41   S    
C66   C80   A    
C20   C89   S    
H14   O88   S    
H12   O47   S    
C52   C62   T    
C81   C94   A    
C83   C96   A    
C22   O89   D    
C57   O29   A    
C30   O105  D    
H13   O86   S    
C144  O49   S    
C46   C56   T    
C90   O32   A    
C28   C141  S    
C28   O102  S    
C106  C119  A    
C108  C121  A    
C48   O20   S    
C68   O1    A    
C84   C97   A    
H7    O75   S    
C45   C117  S    
Cr6   O37   S    
C10   O65   D    
C22   O91   S    
C102  C115  A    
C110  C124  A    
C4    C81   S    
H18   O97   S    
C47   O17   D    
H26   O113  S    
C37   O119  S    
C82   C95   A    
C128  C141  A    
C2    O101  A    
Cr2   O35   S    
Cr6   O24   S    
C3    C80   S    
H40   O20   S    
C14   C96   S    
C50   O25   S    
C37   O118  D    
C25   O94   D    
C67   C68   S    
C56   C104  S    
Cr5   O101  S    
C51   O26   D    
C45   O16   S    
C6    O58   S    
C31   C138  S    
C70   C83   A    
C17   C99   S    
C79   O35   A    
C35   C110  S    
C42   C127  S    
C18   O82   S    
Cr6   O42   S    
H45   O55   S    
C53   C114  S    
H15   O91   S    
C33   C129  S    
C32   O110  S    
C65   C78   A    
H11   O84   S    
Cr5   O36   S    
C4    O53   S    
C99   C113  A    
C14   O72   D    
Cr1   O28   S    
H46   O58   S    
C112  O34   A    
C114  C127  A    
C34   C135  S    
C42   O8    D    
C44   O12   D    
C63   C129  A    
C19   C91   S    
C92   C105  A    
H37   O14   S    
C46   C109  S    
Cr5   O39   S    
C11   O69   S    
C63   C76   A    
Cr1   O57   S    
C7    O60   S    
C20   O86   S    
C21   O87   D    
C29   O103  D    
C57   O79   A    
C50   O23   D    
C144  O48   D    
H24   O108  S    
C27   O98   D    
C32   C130  S    
C44   O14   S    
C62   C105  S    
C54   C60   T    
C67   C133  A    
C8    C85   S    
C109  C122  A    
C31   O108  S    
C54   C113  S    
Cr5   O42   S    
C6    O56   D    
C13   O112  A    
Cr2   O68   S    
C85   C98   A    
C116  C129  A    
Cr6   O40   S    
C9    O63   D    
C51   O27   S    
C134  O37   A    
H29   O119  S    
H23   O49   S    
C7    C84   S    
C41   C128  S    
C43   C126  S    
H5    O71   S    
C66   C132  A    
C64   C101  S    
C123  O24   A    
C10   C87   S    
C49   O22   S    
C50   C119  S    
C143  O47   S    
C38   O120  D    
C86   C99   A    
C9    C86   S    
C40   O5    S    
C11   C88   S    
C36   O117  S    
C119  C132  A    
C11   O67   D    
C101  O33   A    
C117  C130  A    
C30   O106  S    
C94   C107  A    
C26   O97   S    
C61   C106  S    
C17   O78   D    
C24   O40   A    
C71   C84   A    
Cr2   O32   S    
C19   O84   S    
C98   C111  A    
C26   O96   D    
Cr3   O30   S    
C142  O43   D    
C76   C89   A    
C59   C108  S    
C37   C132  S    
C38   C131  S    
C8    O61   D    
C39   O3    S    
C4    O52   D    
H1    O44   S    
C97   C110  A    
Cr1   O41   S    
C63   C90   S    
C10   O66   S    
C15   C102  S    
C41   O7    S    
C73   C86   A    
C75   C88   A    
H9    O80   S    
C58   C103  S    
C18   C98   S    
H19   O99   S    
C24   C71   S    
H30   O121  S    
C76   C142  S    
