data_str_m2_o41_o41_f0_fof.sym.104
_audit_creation_date              2012-10-26T17:13:00-0400
_audit_creation_method            fapswitch 2.2
_symmetry_space_group_name_H-M    P1
_symmetry_Int_Tables_number       1
_space_group_crystal_system       triclinic
_cell_length_a                    16.761828
_cell_length_b                    16.761838
_cell_length_c                    16.761817
_cell_angle_alpha                 67.619566
_cell_angle_beta                  67.619574
_cell_angle_gamma                 67.619584
_cell_volume                      3870.52084524

loop_
_atom_site_label
_atom_site_type_symbol
_atom_type_description
_atom_site_fract_x
_atom_site_fract_y
_atom_site_fract_z
_atom_type_partial_charge
C1    C     C_R   0.309458 0.011890 0.428442 -0.016004
C2    C     C_R   0.690542 0.988111 0.571558 -0.016004
C3    C     C_R   0.011891 0.428441 0.309458 -0.016003
C4    C     C_R   0.988110 0.571558 0.690541 -0.016003
C5    C     C_R   0.428443 0.309459 0.011888 -0.016003
C6    C     C_R   0.571557 0.690542 0.988110 -0.016002
C7    C     C_R   0.550002 0.046265 0.675476 0.016154
C8    C     C_R   0.449998 0.953736 0.324524 0.016155
C9    C     C_R   0.675476 0.550002 0.046262 0.016157
C10   C     C_R   0.324524 0.449998 0.953735 0.016155
C11   C     C_R   0.046264 0.675476 0.550001 0.016156
C12   C     C_R   0.953736 0.324524 0.449998 0.016157
C13   C     C_R   0.452243 0.993300 0.450320 0.058124
C14   C     C_R   0.547756 0.006702 0.549680 0.058124
C15   C     C_R   0.993300 0.450320 0.452243 0.058125
C16   C     C_R   0.006701 0.549680 0.547756 0.058125
C17   C     C_R   0.450321 0.452244 0.993296 0.058124
C18   C     C_R   0.549681 0.547756 0.006699 0.058124
C19   C     C_R   0.028958 0.828195 0.564536 0.851658
C20   C     C_R   0.971042 0.171805 0.435464 0.851658
C21   C     C_R   0.828195 0.564536 0.028957 0.851658
C22   C     C_R   0.171805 0.435464 0.971042 0.851658
C23   C     C_R   0.564536 0.028958 0.828195 0.851655
C24   C     C_R   0.435463 0.971042 0.171805 0.851657
C25   C     C_R   0.430049 0.168547 0.986152 0.842313
C26   C     C_R   0.569951 0.831453 0.013848 0.842313
C27   C     C_R   0.986153 0.430049 0.168547 0.842314
C28   C     C_R   0.013848 0.569951 0.831453 0.842314
C29   C     C_R   0.168547 0.986153 0.430049 0.842315
C30   C     C_R   0.831453 0.013848 0.569951 0.842315
C31   C     C_R   0.404097 0.985952 0.401322 -0.006624
C32   C     C_R   0.595903 0.014049 0.598677 -0.006626
C33   C     C_R   0.985952 0.401322 0.404097 -0.006624
C34   C     C_R   0.014049 0.598677 0.595903 -0.006624
C35   C     C_R   0.401324 0.404097 0.985949 -0.006623
C36   C     C_R   0.598678 0.595903 0.014047 -0.006623
C37   C     C_R   0.262658 0.989619 0.388248 -0.087413
C38   C     C_R   0.737341 0.010382 0.611752 -0.087413
C39   C     C_R   0.989619 0.388248 0.262658 -0.087413
C40   C     C_R   0.010382 0.611752 0.737341 -0.087412
C41   C     C_R   0.388248 0.262658 0.989618 -0.087413
C42   C     C_R   0.611752 0.737342 0.010381 -0.087415
C43   C     C_R   0.600903 0.040669 0.729988 -0.060565
C44   C     C_R   0.399097 0.959331 0.270012 -0.060564
C45   C     C_R   0.729988 0.600904 0.040668 -0.060562
C46   C     C_R   0.270012 0.399097 0.959331 -0.060563
C47   C     C_R   0.040669 0.729988 0.600903 -0.060563
C48   C     C_R   0.959331 0.270012 0.399097 -0.060563
C49   C     C_R   0.456095 0.084286 0.693970 0.411368
C50   C     C_R   0.543905 0.915714 0.306030 0.411366
C51   C     C_R   0.084287 0.693970 0.456094 0.411366
C52   C     C_R   0.915714 0.306030 0.543905 0.411366
C53   C     C_R   0.693971 0.456095 0.084284 0.411367
C54   C     C_R   0.306029 0.543906 0.915714 0.411367
C55   C     C_R   0.265203 0.061625 0.492124 0.404526
C56   C     C_R   0.734797 0.938376 0.507876 0.404525
C57   C     C_R   0.492126 0.265203 0.061621 0.404526
C58   C     C_R   0.507871 0.734798 0.938380 0.404525
C59   C     C_R   0.061626 0.492123 0.265202 0.404525
C60   C     C_R   0.938375 0.507876 0.734797 0.404526
C61   C     C_R   0.307465 0.968421 0.306893 -0.206955
C62   C     C_R   0.692535 0.031579 0.693107 -0.206956
C63   C     C_R   0.968421 0.306893 0.307465 -0.206955
C64   C     C_R   0.031579 0.693107 0.692535 -0.206956
C65   C     C_R   0.306892 0.307465 0.968421 -0.206954
C66   C     C_R   0.693108 0.692535 0.031578 -0.206956
C67   C     C_R   0.689420 0.940879 0.450869 -0.125807
C68   C     C_R   0.310580 0.059121 0.549131 -0.125807
C69   C     C_R   0.940878 0.450870 0.689420 -0.125807
C70   C     C_R   0.059123 0.549130 0.310579 -0.125808
C71   C     C_R   0.450864 0.689420 0.940885 -0.125808
C72   C     C_R   0.549134 0.310580 0.059116 -0.125809
C73   C     C_R   0.593721 0.929814 0.349233 -0.117156
C74   C     C_R   0.406279 0.070186 0.650767 -0.117159
C75   C     C_R   0.349232 0.593722 0.929815 -0.117155
C76   C     C_R   0.650769 0.406279 0.070182 -0.117155
C77   C     C_R   0.929814 0.349234 0.593721 -0.117155
C78   C     C_R   0.070187 0.650766 0.406278 -0.117155
C79   C     C_R   0.736107 0.914678 0.370593 0.352054
C80   C     C_R   0.263893 0.085322 0.629407 0.352051
C81   C     C_R   0.914676 0.370594 0.736107 0.352053
C82   C     C_R   0.085326 0.629405 0.263892 0.352053
C83   C     C_R   0.370584 0.736107 0.914693 0.352055
C84   C     C_R   0.629410 0.263893 0.085316 0.352054
C85   C     C_R   0.688668 0.910415 0.319468 0.383382
C86   C     C_R   0.311332 0.089584 0.680533 0.383377
C87   C     C_R   0.319462 0.688668 0.910424 0.383382
C88   C     C_R   0.680535 0.311332 0.089579 0.383384
C89   C     C_R   0.910414 0.319469 0.688668 0.383383
C90   C     C_R   0.089588 0.680531 0.311331 0.383382
C91   C     C_R   0.546961 0.966095 0.423827 -0.028011
C92   C     C_R   0.453039 0.033906 0.576173 -0.028013
C93   C     C_R   0.966095 0.423827 0.546960 -0.028012
C94   C     C_R   0.033906 0.576173 0.453039 -0.028011
C95   C     C_R   0.423827 0.546961 0.966094 -0.028012
C96   C     C_R   0.576175 0.453039 0.033901 -0.028011
C97   C     C_R   0.594734 0.972474 0.473924 -0.028743
C98   C     C_R   0.405266 0.027527 0.526075 -0.028744
C99   C     C_R   0.473924 0.594734 0.972473 -0.028741
C100  C     C_R   0.526078 0.405266 0.027523 -0.028742
C101  C     C_R   0.972473 0.473925 0.594734 -0.028743
C102  C     C_R   0.027528 0.526075 0.405266 -0.028743
Cu1   Cu    Cu3+1 0.995180 0.995180 0.424630 1.186142
Cu2   Cu    Cu3+1 0.004820 0.004820 0.575370 1.186140
Cu3   Cu    Cu3+1 0.995180 0.424630 0.995180 1.186141
Cu4   Cu    Cu3+1 0.004820 0.575370 0.004820 1.186142
Cu5   Cu    Cu3+1 0.424630 0.995180 0.995180 1.186150
Cu6   Cu    Cu3+1 0.575370 0.004820 0.004820 1.186142
H1    H     H_    0.269998 0.962250 0.270242 0.208231
H2    H     H_    0.730002 0.037750 0.729758 0.208230
H3    H     H_    0.962250 0.270242 0.269998 0.208230
H4    H     H_    0.037750 0.729758 0.730002 0.208230
H5    H     H_    0.270242 0.269998 0.962251 0.208230
H6    H     H_    0.729758 0.730002 0.037749 0.208230
O1    O     O_R   0.124540 0.978640 0.385460 -0.559170
O2    O     O_R   0.875460 0.021360 0.614540 -0.559171
O3    O     O_R   0.978640 0.385460 0.124540 -0.559170
O4    O     O_R   0.021360 0.614540 0.875460 -0.559169
O5    O     O_R   0.385460 0.124540 0.978640 -0.559169
O6    O     O_R   0.614540 0.875460 0.021360 -0.559171
O7    O     O_R   0.614540 0.021360 0.875460 -0.591509
O8    O     O_R   0.385460 0.978640 0.124540 -0.591507
O9    O     O_R   0.875460 0.614540 0.021360 -0.591508
O10   O     O_R   0.124540 0.385460 0.978640 -0.591509
O11   O     O_R   0.021360 0.875460 0.614540 -0.591509
O12   O     O_R   0.978640 0.124540 0.385460 -0.591508
O13   O     O_R   0.013780 0.867370 0.487190 -0.504523
O14   O     O_R   0.986220 0.132630 0.512810 -0.504523
O15   O     O_R   0.867370 0.487190 0.013780 -0.504525
O16   O     O_R   0.132630 0.512810 0.986220 -0.504522
O17   O     O_R   0.487190 0.013780 0.867370 -0.504522
O18   O     O_R   0.512810 0.986220 0.132630 -0.504524
O19   O     O_R   0.512810 0.132630 0.986220 -0.549530
O20   O     O_R   0.487190 0.867370 0.013780 -0.549524
O21   O     O_R   0.986220 0.512810 0.132630 -0.549530
O22   O     O_R   0.013780 0.487190 0.867370 -0.549530
O23   O     O_R   0.132630 0.986220 0.512810 -0.549530
O24   O     O_R   0.867370 0.013780 0.487190 -0.549529
Cl1   Cl    Cl    0.250366 0.105091 0.788747 -0.352944
Cl2   Cl    Cl    0.749636 0.894904 0.211255 -0.352945
Cl3   Cl    Cl    0.105100 0.788743 0.250363 -0.352939
Cl4   Cl    Cl    0.894902 0.211256 0.749636 -0.352944
Cl5   Cl    Cl    0.788748 0.250364 0.105095 -0.352942
Cl6   Cl    Cl    0.211246 0.749633 0.894919 -0.352939
Cl7   Cl    Cl    0.146467 0.099619 0.675024 -0.382779
Cl8   Cl    Cl    0.853533 0.900380 0.324976 -0.382777
Cl9   Cl    Cl    0.675028 0.146468 0.099612 -0.382773
Cl10  Cl    Cl    0.324959 0.853529 0.900418 -0.382759
Cl11  Cl    Cl    0.099627 0.675021 0.146465 -0.382773
Cl12  Cl    Cl    0.900377 0.324978 0.853533 -0.382780
Cl13  Cl    Cl    0.409375 0.174293 0.744017 -0.530920
Cl14  Cl    Cl    0.590624 0.825706 0.255984 -0.530919
Cl15  Cl    Cl    0.174294 0.744017 0.409376 -0.530920
Cl16  Cl    Cl    0.825706 0.255984 0.590624 -0.530920
Cl17  Cl    Cl    0.744015 0.409376 0.174293 -0.530919
Cl18  Cl    Cl    0.255980 0.590626 0.825708 -0.530923
Cl19  Cl    Cl    0.171938 0.154766 0.471742 -0.565307
Cl20  Cl    Cl    0.828062 0.845234 0.528258 -0.565309
Cl21  Cl    Cl    0.471745 0.171939 0.154764 -0.565306
Cl22  Cl    Cl    0.528247 0.828065 0.845238 -0.565309
Cl23  Cl    Cl    0.154768 0.471739 0.171938 -0.565308
Cl24  Cl    Cl    0.845233 0.528260 0.828061 -0.565311

loop_
_geom_bond_atom_site_label_1
_geom_bond_atom_site_label_2
_ccdc_geom_bond_type
C68   C80   A    
C83   C87   A    
C9    C45   A    
C30   O24   A    
C18   C96   A    
Cu6   O6    S    
C11   C47   A    
C41   C65   A    
Cu6   O7    S    
C12   C48   A    
C61   H1    S    
C55   C68   A    
C7    C49   A    
C75   C95   A    
C23   O7    A    
C30   O2    A    
C78   C90   A    
C77   C89   A    
C26   O20   A    
C17   C35   A    
C26   O6    A    
C20   O14   A    
Cu5   O20   S    
C54   Cl18  S    
C19   C47   S    
C58   C71   A    
C64   H4    S    
C28   C40   S    
C52   Cl16  S    
C89   Cl4   S    
C96   C100  A    
C1    C31   A    
C22   O16   A    
C23   C43   S    
Cu2   O23   S    
C30   C38   S    
C2    C32   A    
C74   C92   A    
C13   C98   A    
Cu1   O12   S    
C24   O18   A    
C56   Cl20  S    
Cu1   Cu2   S    
C16   C34   A    
Cu2   O2    S    
Cu2   O11   S    
C4    C40   A    
C27   C39   S    
C21   O15   A    
C62   H2    S    
Cu4   O9    S    
C10   C46   A    
C9    C36   A    
C80   C86   A    
Cu5   Cu6   S    
Cu4   O21   S    
C10   C35   A    
C17   C95   A    
C7    C43   A    
C87   Cl6   S    
C25   O19   A    
C76   C88   A    
C88   Cl5   S    
C71   C83   A    
C1    C37   A    
C81   C89   A    
C57   Cl21  S    
C3    C39   A    
C15   C102  A    
Cu4   O4    S    
C63   H3    S    
Cu3   O3    S    
C10   C54   A    
C25   O5    A    
Cu5   O5    S    
C12   C52   A    
C79   Cl8   S    
C21   C45   S    
C27   O3    A    
C4    C34   A    
C49   Cl13  S    
C92   C98   A    
C90   Cl3   S    
C69   C81   A    
C84   C88   A    
C67   C79   A    
C73   C91   A    
C46   C65   A    
Cu5   O17   S    
Cu1   O24   S    
C93   C101  A    
C47   C64   A    
C48   C63   A    
Cu3   O15   S    
C71   C99   A    
C29   O23   A    
C19   O11   A    
C91   C97   A    
C54   C75   A    
Cu3   O10   S    
C21   O9    A    
Cu1   O1    S    
C20   O12   A    
C59   Cl23  S    
C2    C38   A    
C60   Cl24  S    
Cu2   O14   S    
C14   C92   A    
C4    C60   A    
C24   O8    A    
C23   O17   A    
C20   C48   S    
C74   C86   A    
C85   Cl2   S    
C73   C85   A    
C72   C84   A    
C86   Cl1   S    
C2    C56   A    
Cu3   O22   S    
C75   C87   A    
C80   Cl7   S    
C22   C46   S    
C53   Cl17  S    
C24   C44   S    
C50   C73   A    
C53   C76   A    
C9    C53   A    
C18   C99   A    
C25   C41   S    
C52   C77   A    
C8    C50   A    
C79   C85   A    
Cu1   O13   S    
C26   C42   S    
C14   C97   A    
C72   C100  A    
C84   Cl9   S    
Cu4   O16   S    
C5    C41   A    
C51   Cl15  S    
C7    C32   A    
C66   H6    S    
C28   O22   A    
C8    C31   A    
C65   H5    S    
C13   C31   A    
C11   C34   A    
C8    C44   A    
C14   C32   A    
C82   C90   A    
C15   C93   A    
C37   C61   A    
C70   C102  A    
C22   O10   A    
C69   C101  A    
C44   C61   A    
C56   C67   A    
C39   C63   A    
Cu3   Cu4   S    
C16   C94   A    
C40   C64   A    
C5    C57   A    
C27   O21   A    
C1    C55   A    
C51   C78   A    
Cu6   O19   S    
C28   O4    A    
C76   C96   A    
C60   C69   A    
C78   C94   A    
C5    C35   A    
C77   C93   A    
C6    C36   A    
C95   C99   A    
C6    C58   A    
C57   C72   A    
C29   O1    A    
C70   C82   A    
C17   C100  A    
C68   C98   A    
Cu6   O18   S    
C82   Cl11  S    
C11   C51   A    
C67   C97   A    
C59   C70   A    
C83   Cl10  S    
C50   Cl14  S    
C16   C101  A    
C55   Cl19  S    
C94   C102  A    
C6    C42   A    
C29   C37   S    
C45   C66   A    
C42   C66   A    
C3    C33   A    
C49   C74   A    
C58   Cl22  S    
C19   O13   A    
Cu5   O8    S    
C12   C33   A    
C18   C36   A    
C15   C33   A    
C13   C91   A    
C81   Cl12  S    
C43   C62   A    
C38   C62   A    
C3    C59   A    
