data_str_m2_o16_o16_f0_pcu.sym.81
_audit_creation_date              2012-12-10T17:31:27-0500
_audit_creation_method            fapswitch 2.2
_symmetry_space_group_name_H-M    P1
_symmetry_Int_Tables_number       1
_space_group_crystal_system       triclinic
_cell_length_a                    19.052164
_cell_length_b                    18.450876
_cell_length_c                    12.355451
_cell_angle_alpha                 89.999954
_cell_angle_beta                  129.175984
_cell_angle_gamma                 90.0
_cell_volume                      3366.96732085

loop_
_atom_site_label
_atom_site_type_symbol
_atom_type_description
_atom_site_fract_x
_atom_site_fract_y
_atom_site_fract_z
_atom_type_partial_charge
C1    C     C_R   0.612424 0.898369 0.653183 0.783136
C2    C     C_R   0.612375 0.101682 0.653088 0.777014
C3    C     C_R   0.112376 0.398318 0.653089 0.777008
C4    C     C_R   0.112424 0.601631 0.653183 0.783133
C5    C     C_R   0.242314 0.779089 0.033866 0.078708
C6    C     C_R   0.242657 0.221229 0.034256 0.067380
C7    C     C_R   0.742657 0.278770 0.034256 0.067379
C8    C     C_R   0.742314 0.720911 0.033866 0.078708
C9    C     C_R   0.660672 0.278594 0.014545 0.158128
C10   C     C_R   0.660295 0.720978 0.014055 0.168774
C11   C     C_R   0.160296 0.779021 0.014055 0.168773
C12   C     C_R   0.160671 0.221404 0.014543 0.158129
C13   C     C_R   0.583685 0.245920 0.896891 -0.257539
C14   C     C_R   0.583395 0.753858 0.896612 -0.239208
C15   C     C_R   0.083395 0.746142 0.896613 -0.239209
C16   C     C_R   0.083684 0.254078 0.896888 -0.257543
C17   C     C_R   0.587867 0.210321 0.802401 -0.209304
C18   C     C_R   0.587767 0.789870 0.802639 -0.196277
C19   C     C_R   0.087767 0.710129 0.802640 -0.196277
C20   C     C_R   0.087867 0.289679 0.802400 -0.209304
C21   C     C_R   0.317597 0.813951 0.152120 -0.247561
C22   C     C_R   0.317957 0.186421 0.152618 -0.256889
C23   C     C_R   0.817957 0.313578 0.152618 -0.256893
C24   C     C_R   0.817597 0.686049 0.152120 -0.247561
C25   C     C_R   0.230363 0.850470 0.223773 -0.193034
C26   C     C_R   0.230799 0.150215 0.224551 -0.194720
C27   C     C_R   0.730800 0.349783 0.224554 -0.194721
C28   C     C_R   0.730362 0.649530 0.223773 -0.193035
C29   C     C_R   0.678531 0.158953 0.741168 -0.111639
C30   C     C_R   0.678518 0.841100 0.741361 -0.100170
C31   C     C_R   0.178518 0.658900 0.741361 -0.100172
C32   C     C_R   0.178531 0.341048 0.741169 -0.111644
C33   C     C_R   0.684688 0.003888 0.287515 -0.255564
C34   C     C_R   0.184688 0.496110 0.287515 -0.255552
C35   C     C_R   0.343743 0.999141 0.627591 0.079331
C36   C     C_R   0.843743 0.500860 0.627591 0.079330
C37   C     C_R   0.309665 0.998924 0.699541 -0.254230
C38   C     C_R   0.809665 0.501077 0.699541 -0.254231
C39   C     C_R   0.384380 0.098834 0.342655 0.793183
C40   C     C_R   0.384265 0.901291 0.342495 0.793089
C41   C     C_R   0.884265 0.598709 0.342495 0.793090
C42   C     C_R   0.884381 0.401166 0.342656 0.793184
C43   C     C_R   0.368546 0.999564 0.845179 -0.166062
C44   C     C_R   0.868546 0.500437 0.845179 -0.166062
C45   C     C_R   0.463085 0.000528 0.921614 -0.013195
C46   C     C_R   0.963085 0.499472 0.921614 -0.013195
C47   C     C_R   0.494826 0.000785 0.842962 0.231951
C48   C     C_R   0.994826 0.499214 0.842962 0.231957
C49   C     C_R   0.527032 0.001005 0.072370 -0.105076
C50   C     C_R   0.027032 0.498995 0.072370 -0.105081
C51   C     C_R   0.621112 0.003334 0.140767 0.075332
C52   C     C_R   0.121112 0.496664 0.140767 0.075344
C53   C     C_R   0.651151 0.005693 0.062606 0.367240
C54   C     C_R   0.151151 0.494304 0.062606 0.367247
C55   C     C_R   0.588792 0.001969 0.917134 -0.276187
C56   C     C_R   0.088792 0.498030 0.917134 -0.276203
C57   C     C_R   0.502140 0.999427 0.159519 0.048688
C58   C     C_R   0.002140 0.500573 0.159519 0.048688
C59   C     C_R   0.655753 0.002090 0.366226 0.043966
C60   C     C_R   0.155753 0.497909 0.366226 0.043960
C61   C     C_R   0.655959 0.312811 0.111198 -0.196984
C62   C     C_R   0.655479 0.686458 0.110381 -0.191093
C63   C     C_R   0.155480 0.813542 0.110382 -0.191094
C64   C     C_R   0.155958 0.187187 0.111195 -0.196978
C65   C     C_R   0.310822 0.852121 0.242431 -0.047869
C66   C     C_R   0.311154 0.148281 0.242931 -0.045493
C67   C     C_R   0.811155 0.351718 0.242932 -0.045494
C68   C     C_R   0.810822 0.647879 0.242431 -0.047869
C69   C     C_R   0.756400 0.163087 0.752310 -0.181981
C70   C     C_R   0.756090 0.836442 0.751771 -0.183586
C71   C     C_R   0.256090 0.663558 0.751770 -0.183587
C72   C     C_R   0.256401 0.336915 0.752312 -0.181986
C73   C     C_R   0.326748 0.709129 0.848983 -0.147139
C74   C     C_R   0.327379 0.291767 0.850151 -0.148516
C75   C     C_R   0.827378 0.208234 0.850149 -0.148516
C76   C     C_R   0.826748 0.790871 0.848983 -0.147139
C77   C     C_R   0.323195 0.748071 0.941643 -0.180183
C78   C     C_R   0.323790 0.252678 0.942622 -0.188612
C79   C     C_R   0.823790 0.247323 0.942621 -0.188607
C80   C     C_R   0.823195 0.751929 0.941643 -0.180182
C81   C     C_R   0.746672 0.243866 0.935742 0.075551
C82   C     C_R   0.746405 0.755970 0.935556 0.087296
C83   C     C_R   0.246405 0.744030 0.935556 0.087295
C84   C     C_R   0.246672 0.256134 0.935743 0.075548
C85   C     C_R   0.670279 0.204030 0.825472 0.061219
C86   C     C_R   0.670245 0.796204 0.825851 0.086451
C87   C     C_R   0.170245 0.703796 0.825851 0.086450
C88   C     C_R   0.170279 0.295970 0.825472 0.061223
Cu1   Cu    Cu3+1 0.526340 0.000000 0.421010 0.933030
Cu2   Cu    Cu3+1 0.026340 0.500000 0.421010 0.933030
Cu3   Cu    Cu3+1 0.473640 0.000000 0.578990 0.917950
Cu4   Cu    Cu3+1 0.973640 0.500000 0.578990 0.917948
H1    H     H_    0.224184 0.880175 0.293015 0.146032
H2    H     H_    0.224624 0.120631 0.293901 0.146014
H3    H     H_    0.724625 0.379367 0.293904 0.146015
H4    H     H_    0.724184 0.619825 0.293014 0.146032
H5    H     H_    0.756789 0.005868 0.341987 0.181444
H6    H     H_    0.256789 0.494130 0.341987 0.181448
H7    H     H_    0.432268 0.997880 0.116254 0.123279
H8    H     H_    0.932268 0.502121 0.116254 0.123279
H9    H     H_    0.297381 0.998627 0.514662 0.116286
H10   H     H_    0.797381 0.501374 0.514662 0.116286
H11   H     H_    0.338263 0.999468 0.895063 0.135235
H12   H     H_    0.838263 0.500533 0.895063 0.135235
H13   H     H_    0.237202 0.998258 0.642106 0.144638
H14   H     H_    0.737202 0.501743 0.642106 0.144638
H15   H     H_    0.617618 0.999894 0.866467 0.217986
H16   H     H_    0.117617 0.500105 0.866466 0.217980
H17   H     H_    0.519772 0.247915 0.877558 0.140665
H18   H     H_    0.519425 0.751741 0.877085 0.136655
H19   H     H_    0.019425 0.748258 0.877086 0.136655
H20   H     H_    0.019771 0.252083 0.877554 0.140665
H21   H     H_    0.593540 0.312906 0.096560 0.130635
H22   H     H_    0.593005 0.686200 0.095577 0.131281
H23   H     H_    0.093005 0.813799 0.095578 0.131281
H24   H     H_    0.093538 0.187091 0.096555 0.130634
H25   H     H_    0.382625 0.813354 0.176118 0.146672
H26   H     H_    0.382951 0.186844 0.176534 0.145683
H27   H     H_    0.882950 0.313157 0.176533 0.145684
H28   H     H_    0.882625 0.686647 0.176118 0.146672
H29   H     H_    0.763680 0.129754 0.687743 0.148440
H30   H     H_    0.763322 0.869573 0.686940 0.149962
H31   H     H_    0.263322 0.630427 0.686939 0.149962
H32   H     H_    0.263682 0.370247 0.687745 0.148442
H33   H     H_    0.380951 0.781903 0.014544 0.127625
H34   H     H_    0.381933 0.219374 0.016260 0.128249
H35   H     H_    0.881933 0.280626 0.016259 0.128248
H36   H     H_    0.880951 0.718097 0.014544 0.127625
H37   H     H_    0.386034 0.712587 0.855534 0.129563
H38   H     H_    0.386967 0.288814 0.857422 0.128870
H39   H     H_    0.886966 0.211187 0.857420 0.128869
H40   H     H_    0.886035 0.787413 0.855534 0.129563
H41   H     H_    0.524933 0.189219 0.709665 0.180055
H42   H     H_    0.524856 0.811052 0.709983 0.174758
H43   H     H_    0.024857 0.688948 0.709984 0.174759
H44   H     H_    0.024933 0.310781 0.709664 0.180056
H45   H     H_    0.704812 0.002769 0.479038 0.118446
H46   H     H_    0.204812 0.497229 0.479038 0.118447
N1    N     N_R   0.566260 0.000000 0.302220 -0.176408
N2    N     N_R   0.066260 0.500000 0.302220 -0.176408
N3    N     N_R   0.434410 0.000000 0.697680 -0.191822
N4    N     N_R   0.934410 0.500000 0.697680 -0.191821
O1    O     O_R   0.608610 0.924520 0.551740 -0.579199
O2    O     O_R   0.608610 0.075480 0.551740 -0.577874
O3    O     O_R   0.108610 0.424520 0.551740 -0.577872
O4    O     O_R   0.108610 0.575480 0.551740 -0.579198
O5    O     O_R   0.564110 0.924510 0.685150 -0.596467
O6    O     O_R   0.564110 0.075490 0.685150 -0.605692
O7    O     O_R   0.064110 0.424510 0.685150 -0.605692
O8    O     O_R   0.064110 0.575490 0.685150 -0.596468
O9    O     O_R   0.435880 0.075470 0.314850 -0.583605
O10   O     O_R   0.435880 0.924530 0.314850 -0.584672
O11   O     O_R   0.935880 0.575470 0.314850 -0.584672
O12   O     O_R   0.935880 0.424530 0.314850 -0.583604
O13   O     O_R   0.391380 0.075460 0.448260 -0.593416
O14   O     O_R   0.391380 0.924540 0.448260 -0.593480
O15   O     O_R   0.891380 0.575460 0.448260 -0.593480
O16   O     O_R   0.891380 0.424540 0.448260 -0.593415
O17   O     O_3   0.743159 0.007071 0.129986 -0.581191
C89   C     C_3   0.765978 0.074798 0.106231 0.072619
H47   H     H_    0.735753 0.120783 0.123049 0.151141
H48   H     H_    0.743123 0.077276 0.998386 0.155418
C90   C     C_3   0.868252 0.083964 0.207288 -0.780821
H49   H     H_    0.900785 0.039912 0.191645 0.249954
H50   H     H_    0.886759 0.136964 0.188874 0.205247
H51   H     H_    0.893489 0.082242 0.316509 0.242493
O18   O     O_3   0.243160 0.492926 0.129988 -0.581196
C91   C     C_3   0.265976 0.425206 0.106202 0.072634
H52   H     H_    0.243147 0.422755 0.998370 0.155411
H53   H     H_    0.235725 0.379214 0.122953 0.151144
C92   C     C_3   0.368248 0.416023 0.207297 -0.780827
H54   H     H_    0.393457 0.417715 0.316505 0.242489
H55   H     H_    0.386753 0.363032 0.188855 0.205250
H56   H     H_    0.400807 0.460084 0.191725 0.249955

loop_
_geom_bond_atom_site_label_1
_geom_bond_atom_site_label_2
_ccdc_geom_bond_type
C26   H2    S    
C14   H18   S    
C83   C87   A    
C92   H54   S    
C25   H1    S    
C64   H24   S    
C2    O2    A    
C14   C18   A    
C27   H3    S    
C90   H49   S    
C7    C81   A    
C48   C56   A    
C54   O18   S    
Cu3   O5    S    
C44   H12   S    
C32   C72   A    
C10   C62   A    
C15   C19   A    
C92   H55   S    
C40   O10   A    
C18   C86   A    
C2    C29   S    
C9    C61   A    
C71   H31   S    
C35   C37   A    
C5    C11   A    
Cu2   O3    S    
C19   C87   A    
C6    C12   A    
C5    C83   A    
C91   H53   S    
C59   H45   S    
C19   H43   S    
C57   H7    S    
C39   O9    A    
C49   C57   A    
C57   N1    A    
C36   H10   S    
C25   C63   A    
C23   C67   A    
C29   C69   A    
C9    C13   A    
C56   H16   S    
Cu4   O16   S    
C13   H17   S    
C27   C61   A    
C8    C24   A    
C11   C15   A    
Cu1   O10   S    
C22   C66   A    
C12   C16   A    
C44   C46   A    
C49   C51   A    
C31   C87   A    
C50   C52   A    
C76   C80   A    
C69   C75   A    
C69   H29   S    
C30   C86   A    
Cu4   N4    S    
C47   N3    A    
C3    O7    A    
C29   C85   A    
C63   H23   S    
C52   C54   A    
C45   C47   A    
C33   C59   A    
C55   H15   S    
C72   H32   S    
C34   C60   A    
C42   O16   A    
C17   C85   A    
C21   C65   A    
Cu3   O6    S    
C30   C70   A    
C75   H39   S    
C41   C68   S    
C41   O11   A    
C53   C55   A    
C92   H56   S    
C54   C56   A    
C53   O17   S    
C6    C84   A    
C24   H28   S    
C26   C66   A    
C89   C90   S    
C15   H19   S    
C90   H51   S    
C58   H8    S    
C72   C74   A    
C10   C14   A    
O18   C91   S    
C79   C81   A    
C80   H36   S    
Cu1   N1    S    
C37   H13   S    
Cu1   O1    S    
C39   O13   A    
Cu4   O15   S    
C51   C53   A    
C89   H48   S    
C37   C43   A    
C38   C44   A    
C1    O1    A    
C70   H30   S    
Cu2   Cu4   S    
O17   C89   S    
C59   N1    A    
C16   C20   A    
C4    O4    A    
C38   H14   S    
C45   C49   A    
C50   C58   A    
C48   N4    A    
C21   H25   S    
C20   H44   S    
Cu2   O11   S    
C43   C45   A    
C35   N3    A    
C41   O15   A    
C80   C82   A    
C91   H52   S    
C42   O12   A    
C60   N2    A    
C3    O3    A    
C40   C65   S    
C74   H38   S    
Cu4   O8    S    
C42   C67   S    
C39   C66   S    
C8    C82   A    
C1    O5    A    
C32   C88   A    
Cu1   Cu3   S    
Cu3   O13   S    
C70   C76   A    
C78   H34   S    
C77   H33   S    
C16   H20   S    
C47   C55   A    
C58   N2    A    
C7    C9    A    
C12   C64   A    
C22   H26   S    
C73   C77   A    
C90   H50   S    
C84   C88   A    
C28   C68   A    
C35   H9    S    
Cu2   N2    S    
C28   C62   A    
C62   H22   S    
C26   C64   A    
C33   C51   A    
Cu1   O2    S    
C4    O8    A    
C46   C50   A    
C34   C52   A    
C13   C17   A    
C28   H4    S    
C89   H47   S    
C36   N4    A    
C36   C38   A    
C79   H35   S    
Cu3   O14   S    
Cu2   O4    S    
C82   C86   A    
C17   H41   S    
C76   H40   S    
Cu2   O12   S    
C75   C79   A    
C73   H37   S    
C7    C23   A    
C20   C88   A    
C31   C71   A    
C1    C30   S    
C34   H6    S    
C18   H42   S    
C33   H5    S    
C3    C32   S    
C43   H11   S    
C4    C31   S    
C27   C67   A    
C24   C68   A    
C61   H21   S    
C46   C48   A    
C78   C84   A    
Cu1   O9    S    
C5    C21   A    
C8    C10   A    
C74   C78   A    
C71   C73   A    
Cu4   O7    S    
C25   C65   A    
C77   C83   A    
C40   O14   A    
C23   H27   S    
C91   C92   S    
C11   C63   A    
C2    O6    A    
C81   C85   A    
C60   H46   S    
Cu3   N3    S    
C6    C22   A    
