data_str_m2_o10_o28_f0_pcu.sym.98
_audit_creation_date              2012-12-10T16:50:20-0500
_audit_creation_method            fapswitch 2.2
_symmetry_space_group_name_H-M    P1
_symmetry_Int_Tables_number       1
_space_group_crystal_system       triclinic
_cell_length_a                    23.421124
_cell_length_b                    8.679926
_cell_length_c                    7.443798
_cell_angle_alpha                 103.442296
_cell_angle_beta                  93.762083
_cell_angle_gamma                 92.394755
_cell_volume                      1466.10962333

loop_
_atom_site_label
_atom_site_type_symbol
_atom_type_description
_atom_site_fract_x
_atom_site_fract_y
_atom_site_fract_z
_atom_type_partial_charge
C1    C     C_R   0.498361 0.199516 0.452845 0.875001
C2    C     C_R   0.501660 0.800494 0.547156 0.863250
C3    C     C_R   0.240889 0.606012 0.604249 0.483308
C4    C     C_R   0.762808 0.464675 0.360609 0.439026
C5    C     C_R   0.301036 0.613580 0.611829 0.329593
C6    C     C_R   0.702384 0.457825 0.346557 0.318711
C7    C     C_R   0.329050 0.486589 0.509050 -0.235407
C8    C     C_R   0.672662 0.524020 0.502899 -0.292727
C9    C     C_R   0.297376 0.347805 0.413899 0.140099
C10   C     C_R   0.704070 0.598508 0.672420 0.199190
C11   C     C_R   0.239812 0.327347 0.446744 -0.237531
C12   C     C_R   0.762895 0.578420 0.691245 -0.187972
C13   C     C_R   0.209659 0.456258 0.539078 0.103472
C14   C     C_R   0.792846 0.510483 0.538500 0.106523
C15   C     C_2   0.497502 0.031300 0.426601 -0.382488
C16   C     C_2   0.502417 0.968698 0.573417 -0.383646
C17   C     C_R   0.391249 0.497756 0.502844 0.904660
C18   C     C_R   0.609260 0.507773 0.498806 0.842839
C19   C     C_R   0.889650 0.611860 0.666312 0.529423
C20   C     C_R   0.111905 0.331900 0.436096 0.562819
C21   C     C_R   0.874612 0.344959 0.486497 0.636190
C22   C     C_R   0.126340 0.528721 0.718619 0.643522
C23   C     C_R   0.933836 0.329605 0.484190 -0.094170
C24   C     C_R   0.067465 0.550229 0.717134 -0.089909
C25   C     C_R   0.970877 0.453133 0.591415 -0.084535
C26   C     C_R   0.030463 0.439771 0.591310 -0.091416
C27   C     C_R   0.948731 0.592256 0.693809 -0.107875
C28   C     C_R   0.053177 0.317230 0.463237 -0.110346
C29   C     C_R   0.956824 0.195570 0.374759 -0.263022
C30   C     C_R   0.045215 0.681364 0.832981 -0.261249
C31   C     C_R   0.016240 0.189500 0.361387 0.498116
C32   C     C_R   0.986760 0.709371 0.812771 0.475975
Cu1   Cu    Cu3+1 0.506340 0.517380 0.684380 0.979160
Cu2   Cu    Cu3+1 0.493660 0.482620 0.315620 0.978342
H1    H     H_    0.928934 0.098204 0.292998 0.216861
H2    H     H_    0.073611 0.768516 0.929443 0.210070
H3    H     H_    0.219568 0.209630 0.398449 0.215944
H4    H     H_    0.786166 0.618796 0.824727 0.194216
H5    H     H_    0.492771 0.958731 0.285549 0.183386
H6    H     H_    0.507041 0.041262 0.714480 0.180125
H7    H     H_    0.454755 0.379315 0.948926 0.226368
H8    H     H_    0.545314 0.620515 0.051004 0.235778
N1    N     N_R   0.853494 0.488320 0.565543 -0.446636
N2    N     N_R   0.148666 0.436581 0.565562 -0.446687
N3    N     N_2   0.484110 0.456420 0.038520 -0.208483
N4    N     N_2   0.515890 0.543580 0.961480 -0.200596
O1    O     O_R   0.504120 0.286130 0.619770 -0.589262
O2    O     O_R   0.495880 0.713870 0.380230 -0.591021
O3    O     O_R   0.493410 0.256770 0.308360 -0.581102
O4    O     O_R   0.506590 0.743230 0.691640 -0.588047
O5    O     O_R   0.423230 0.514630 0.655730 -0.566723
O6    O     O_R   0.576770 0.485370 0.344270 -0.549362
O7    O     O_R   0.412530 0.485280 0.344320 -0.565073
O8    O     O_R   0.587470 0.514720 0.655680 -0.553693
O9    O     O_2   0.868844 0.754477 0.734509 -0.506433
O10   O     O_2   0.130468 0.249094 0.276490 -0.501564
O11   O     O_2   0.838501 0.218721 0.407127 -0.513680
O12   O     O_2   0.160495 0.599414 0.871021 -0.491708
O13   O     O_3   0.038058 0.058312 0.249966 -0.529958
C33   C     C_3   0.039341 0.935969 0.345947 -0.256910
H9    H     H_    0.995241 0.889271 0.359018 0.159960
H10   H     H_    0.063048 0.975771 0.485042 0.123325
H11   H     H_    0.062213 0.836590 0.265717 0.191226
O14   O     O_3   0.966634 0.845948 0.918994 -0.535870
C34   C     C_3   0.981057 0.974145 0.840255 -0.148067
H12   H     H_    0.962148 0.081920 0.919358 0.197471
H13   H     H_    0.028261 0.999234 0.849294 0.156920
H14   H     H_    0.963051 0.952684 0.693781 0.137874
O15   O     O_3   0.214011 0.745212 0.667085 -0.525369
C35   C     C_3   0.188542 0.792696 0.512946 -0.319138
H15   H     H_    0.220381 0.804567 0.411471 0.157610
H16   H     H_    0.152088 0.709399 0.443419 0.167729
H17   H     H_    0.171286 0.910932 0.562337 0.193991
O16   O     O_3   0.790604 0.410234 0.200845 -0.537454
C36   C     C_3   0.828007 0.531659 0.169181 -0.242331
H18   H     H_    0.869559 0.540666 0.251947 0.162382
H19   H     H_    0.809040 0.649530 0.196117 0.141250
H20   H     H_    0.838027 0.499655 0.022213 0.184383
O17   O     O_3   0.332417 0.738299 0.732750 -0.535581
C37   C     C_3   0.343194 0.860693 0.642549 -0.281490
H21   H     H_    0.357518 0.816155 0.500839 0.134150
H22   H     H_    0.378225 0.942265 0.724339 0.182725
H23   H     H_    0.304700 0.930400 0.638888 0.195891
O18   O     O_3   0.672683 0.393826 0.176965 -0.539709
C38   C     C_3   0.665991 0.227872 0.153351 -0.185813
H24   H     H_    0.641865 0.195979 0.264869 0.122590
H25   H     H_    0.708097 0.172787 0.147288 0.193205
H26   H     H_    0.640796 0.176909 0.019649 0.173142
N5    N     N_2   0.323221 0.229633 0.283866 -0.393035
H27   H     H_    0.298590 0.191759 0.159991 0.281728
C39   C     C_3   0.342605 0.098227 0.354600 -0.677465
H28   H     H_    0.304990 0.023100 0.373149 0.211468
H29   H     H_    0.368980 0.141454 0.488014 0.215126
H30   H     H_    0.369302 0.025194 0.253467 0.244782
N6    N     N_2   0.675638 0.696104 0.818720 -0.377063
H31   H     H_    0.649635 0.776590 0.777348 0.243142
C40   C     C_3   0.703700 0.750808 0.002902 -0.640578
H32   H     H_    0.740886 0.834266 0.001917 0.231066
H33   H     H_    0.717294 0.647932 0.055967 0.266887
H34   H     H_    0.673006 0.814029 0.097488 0.206208

loop_
_geom_bond_atom_site_label_1
_geom_bond_atom_site_label_2
_ccdc_geom_bond_type
N6    H31   S    
C20   O10   S    
C17   O5    A    
C40   H32   S    
C18   O6    A    
C38   H24   S    
C33   H11   S    
C23   C29   A    
C3    O15   S    
C24   C26   A    
C15   C16   D    
C33   H10   S    
H8    N4    S    
C31   O13   S    
C11   H3    S    
C2    O4    A    
C20   N2    A    
C21   N1    A    
C22   N2    A    
C34   H13   S    
C35   H15   S    
C1    C15   S    
C5    O17   S    
C2    C16   S    
C4    O16   S    
C3    C13   A    
O13   C33   S    
C4    C14   A    
Cu1   N4    S    
C37   H23   S    
C40   H33   S    
C19   N1    A    
C38   H25   S    
C6    O18   S    
O16   C36   S    
O18   C38   S    
C32   O14   S    
C37   H22   S    
C9    N5    S    
C39   H28   S    
C5    C7    A    
C1    O1    A    
C6    C8    A    
C20   C28   A    
C2    O2    A    
Cu1   O4    S    
N3    N4    D    
C8    C18   S    
C33   H9    S    
C36   H18   S    
C21   O11   S    
C39   H29   S    
C9    C11   A    
C34   H14   S    
C35   H17   S    
Cu1   Cu2   S    
Cu2   N3    S    
C36   H19   S    
C15   H5    S    
C10   C12   A    
C16   H6    S    
C4    C6    A    
C12   C14   A    
C34   H12   S    
C21   C23   A    
C25   C27   A    
Cu1   O1    S    
C22   C24   A    
Cu2   O2    S    
C17   O7    A    
C40   H34   S    
C19   C27   A    
C38   H26   S    
C19   O9    S    
Cu1   O8    S    
C7    C9    A    
Cu2   O3    S    
C27   C32   A    
C26   C28   A    
C28   C31   A    
C37   H21   S    
C3    C5    A    
C7    C17   S    
C22   O12   S    
N6    C40   S    
Cu1   O5    S    
C29   H1    S    
Cu2   O6    S    
C30   H2    S    
O14   C34   S    
C25   C26   A    
C29   C31   A    
C39   H30   S    
C30   C32   A    
C11   C13   A    
C10   N6    S    
C23   C25   A    
C12   H4    S    
O15   C35   S    
C36   H20   S    
C24   C30   A    
C18   O8    A    
O17   C37   S    
Cu2   O7    S    
C8    C10   A    
N5    C39   S    
H7    N3    S    
C35   H16   S    
N5    H27   S    
C1    O3    A    
C13   N2    S    
C14   N1    S    
