data_str_m3_o4_o9_f0_pcu.sym.217
_audit_creation_date              2012-12-10T20:45:32-0500
_audit_creation_method            fapswitch 2.2
_symmetry_space_group_name_H-M    P1
_symmetry_Int_Tables_number       1
_space_group_crystal_system       triclinic
_cell_length_a                    10.739836
_cell_length_b                    10.706613
_cell_length_c                    9.91097
_cell_angle_alpha                 89.266484
_cell_angle_beta                  91.078123
_cell_angle_gamma                 91.255887
_cell_volume                      1139.0723891

loop_
_atom_site_label
_atom_site_type_symbol
_atom_type_description
_atom_site_fract_x
_atom_site_fract_y
_atom_site_fract_z
_atom_type_partial_charge
C1    C     C_R   0.504820 0.259970 0.500266 0.885192
C2    C     C_R   0.208952 0.661369 0.993056 -0.103637
C3    C     C_R   0.932968 0.533708 0.379496 -0.253786
C4    C     C_R   0.873461 0.526219 0.503714 -0.086825
C5    C     C_R   0.942615 0.545681 0.624408 -0.003721
C6    C     C_R   0.070707 0.547079 0.618589 -0.261941
C7    C     C_R   0.129608 0.536349 0.495661 -0.099306
C8    C     C_R   0.060822 0.547763 0.374369 0.004409
C9    C     C_R   0.885838 0.701719 0.794443 -0.155096
C10   C     C_R   0.850478 0.732178 0.924562 -0.150825
C11   C     C_R   0.817531 0.637666 0.016206 -0.103803
C12   C     C_R   0.260947 0.511878 0.498389 0.872398
C13   C     C_R   0.816733 0.512531 0.976920 -0.149435
C14   C     C_R   0.853233 0.481530 0.847072 -0.121575
C15   C     C_R   0.888351 0.576257 0.755336 0.151274
C16   C     C_R   0.542535 0.062643 0.619232 0.133509
C17   C     C_R   0.527436 0.128866 0.498866 -0.107031
C18   C     C_R   0.538489 0.066743 0.375680 -0.229757
C19   C     C_R   0.538922 0.937391 0.375145 -0.242215
C20   C     C_R   0.529237 0.871491 0.497883 -0.097607
C21   C     C_R   0.544716 0.934843 0.619119 0.143688
C22   C     C_3   0.471238 0.923758 0.745376 -0.496522
C23   C     C_R   0.505673 0.739954 0.499252 0.857234
C24   C     C_3   0.466299 0.064305 0.742812 -0.506899
C25   C     C_R   0.475758 0.392443 0.072778 0.209570
C26   C     C_R   0.529573 0.604951 0.070828 -0.129124
C27   C     C_R   0.530937 0.604425 0.927474 -0.110518
C28   C     C_R   0.473522 0.392793 0.930177 0.217792
C29   C     C_3   0.351964 0.321937 0.929199 -0.526295
C30   C     C_3   0.358705 0.317032 0.081684 -0.497737
C31   C     C_R   0.740292 0.507094 0.501478 0.863453
C32   C     C_R   0.237852 0.731399 0.107869 -0.141573
C33   C     C_R   0.191059 0.693769 0.233055 -0.084405
C34   C     C_R   0.116496 0.584458 0.244057 0.141033
C35   C     C_R   0.088378 0.514993 0.128604 -0.180068
C36   C     C_R   0.133858 0.553684 0.004111 -0.113838
H1    H     H_    0.244721 0.690352 0.895929 0.124915
H2    H     H_    0.789944 0.439591 0.047915 0.122817
H3    H     H_    0.856568 0.384293 0.818879 0.117622
H4    H     H_    0.536981 0.116488 0.279853 0.165262
H5    H     H_    0.536831 0.890100 0.279130 0.159437
H6    H     H_    0.378564 0.876988 0.730402 0.204161
H7    H     H_    0.527595 0.889023 0.832308 0.189342
H8    H     H_    0.518241 0.108065 0.828696 0.201963
H9    H     H_    0.553049 0.690278 0.123532 0.133096
H10   H     H_    0.295940 0.814966 0.099809 0.119945
H11   H     H_    0.558233 0.687931 0.873304 0.150049
H12   H     H_    0.274933 0.377613 0.886367 0.213269
H13   H     H_    0.356215 0.228266 0.886756 0.198235
H14   H     H_    0.283433 0.366985 0.131459 0.234777
H15   H     H_    0.212358 0.749780 0.321109 0.106749
H16   H     H_    0.031499 0.430411 0.135019 0.125294
H17   H     H_    0.110150 0.498491 0.917247 0.121542
H18   H     H_    0.125172 0.558458 0.710099 0.156893
H19   H     H_    0.914377 0.775541 0.725168 0.124189
H20   H     H_    0.849976 0.828914 0.954864 0.126203
N1    N     N_R   0.499160 0.499140 0.142800 -0.102972
N2    N     N_R   0.499160 0.499180 0.857150 -0.107383
O1    O     O_R   0.500020 0.316790 0.614690 -0.611494
O2    O     O_R   0.500000 0.316760 0.385350 -0.622648
O3    O     O_R   0.316770 0.500030 0.614670 -0.626008
O4    O     O_R   0.316750 0.499990 0.385330 -0.609070
O5    O     O_R   0.500000 0.683240 0.614650 -0.627536
O6    O     O_R   0.499980 0.683210 0.385310 -0.634477
O7    O     O_R   0.683250 0.500010 0.614670 -0.610610
O8    O     O_R   0.683230 0.499970 0.385330 -0.631195
Zn1   Zn    Zn3+2 0.500010 0.500020 0.653130 0.944184
Zn2   Zn    Zn3+2 0.499990 0.499980 0.346870 0.938746
H21   H     H_    0.791015 0.661819 0.117128 0.125335
H22   H     H_    0.370847 0.097992 0.720343 0.201631
H23   H     H_    0.375541 0.221805 0.123112 0.189020
H24   H     H_    0.879830 0.532730 0.285778 0.162703

loop_
_geom_bond_atom_site_label_1
_geom_bond_atom_site_label_2
_ccdc_geom_bond_type
C31   O8    A    
O8    Zn2   S    
C11   H21   S    
C30   H23   S    
C16   C21   A    
C9    H19   S    
C28   N2    A    
C33   H15   S    
C10   H20   S    
C9    C10   A    
O3    Zn1   S    
C1    C17   S    
C19   C20   A    
C20   C23   S    
O4    Zn2   S    
C32   C33   A    
C23   O5    A    
C33   C34   A    
C13   H2    S    
C24   H22   S    
C7    C8    A    
C16   C24   S    
C22   H6    S    
C21   C22   S    
C25   C28   A    
C12   O3    A    
C11   C13   A    
C2    H1    S    
C26   C27   A    
C29   C30   S    
C25   N1    A    
C6    H18   S    
O6    Zn2   S    
C28   C29   S    
C17   C18   A    
C6    C7    A    
O5    Zn1   S    
C1    O1    A    
C3    C8    A    
C30   H14   S    
C5    C6    A    
C24   H8    S    
C26   N1    A    
C22   C24   S    
C7    C12   S    
C5    C15   S    
C4    C31   S    
C16   C17   A    
C10   C11   A    
N1    Zn2   S    
C2    C36   A    
C3    C4    A    
C19   H5    S    
N2    Zn1   S    
C35   H16   S    
C3    H24   S    
C12   O4    A    
C20   C21   A    
O2    Zn2   S    
C2    C32   A    
C34   C35   A    
C1    O2    A    
C27   H11   S    
C25   C30   S    
C31   O7    A    
C18   C19   A    
C18   H4    S    
C14   C15   A    
C23   O6    A    
C29   H13   S    
C36   H17   S    
C29   H12   S    
C26   H9    S    
O1    Zn1   S    
C14   H3    S    
C8    C34   S    
C32   H10   S    
C27   N2    A    
C22   H7    S    
C35   C36   A    
C9    C15   A    
C4    C5    A    
O7    Zn1   S    
C13   C14   A    
