data_str_m12_o9_o24_f0_bcu.sym.77
_audit_creation_date              2013-03-05T15:58:19-0500
_audit_creation_method            fapswitch 2.2
_symmetry_space_group_name_H-M    P1
_symmetry_Int_Tables_number       1
_space_group_crystal_system       triclinic
_cell_length_a                    14.866681
_cell_length_b                    14.972087
_cell_length_c                    15.113473
_cell_angle_alpha                 109.873177
_cell_angle_beta                  109.028014
_cell_angle_gamma                 109.270072
_cell_volume                      2597.24155108

loop_
_atom_site_label
_atom_site_type_symbol
_atom_site_description
_atom_site_fract_x
_atom_site_fract_y
_atom_site_fract_z
_atom_type_partial_charge
C1    C     C_R   0.975090 0.251174 0.064383 -0.019945
C2    C     C_R   0.093311 0.806074 0.008344 -0.115229
H1    H     H_    0.941185 0.241672 0.115785 0.101037
H2    H     H_    0.152870 0.834553 0.984255 0.137118
N1    N     N_R   0.947560 0.293820 0.002910 -0.028245
N2    N     N_R   0.052440 0.706180 0.997090 -0.044882
C3    C     C_R   0.316059 0.764207 0.227782 0.472367
C4    C     C_R   0.717406 0.188669 0.803031 0.482003
N3    N     N_R   0.208960 0.706170 0.152110 -0.076561
N4    N     N_R   0.791040 0.293830 0.847890 -0.080616
C5    C     C_R   0.211084 0.408587 0.905038 -0.193177
C6    C     C_R   0.776575 0.593534 0.026381 -0.178945
H3    H     H_    0.182601 0.324381 0.849491 0.120560
H4    H     H_    0.796887 0.678186 0.061508 0.134020
N5    N     N_R   0.154330 0.443160 0.946140 -0.059282
N6    N     N_R   0.845670 0.556840 0.053860 -0.053736
C7    C     C_R   0.989333 0.589867 0.294762 -0.136774
C8    C     C_R   0.948828 0.411245 0.685881 -0.127085
H5    H     H_    0.009266 0.673296 0.341430 0.097674
H6    H     H_    0.902294 0.327375 0.620716 0.104012
N7    N     N_R   0.002190 0.556820 0.208880 -0.044339
N8    N     N_R   0.997810 0.443180 0.791120 -0.042316
C9    C     C_R   0.294839 0.589447 0.984600 0.300099
C10   C     C_R   0.683697 0.410866 0.934799 0.208197
N9    N     N_R   0.210550 0.556810 0.002910 -0.077836
N10   N     N_R   0.789450 0.443190 0.997090 -0.054252
C11   C     C_R   0.899391 0.408763 0.204591 -0.141680
C12   C     C_R   0.034238 0.594788 0.781334 -0.072732
H7    H     H_    0.835347 0.326055 0.166408 0.158415
H8    H     H_    0.060058 0.679296 0.807149 0.116820
N11   N     N_R   0.945970 0.443180 0.152110 -0.044630
N12   N     N_R   0.054030 0.556820 0.847890 -0.041952
C13   C     C_R   0.218931 0.749450 0.312850 -0.197537
C14   C     C_R   0.793838 0.196869 0.701263 -0.210253
H9    H     H_    0.192346 0.747668 0.370383 0.142783
H10   H     H_    0.820980 0.178065 0.643245 0.157898
N13   N     N_R   0.151530 0.706170 0.208880 -0.065414
N14   N     N_R   0.848470 0.293830 0.791120 -0.065681
C15   C     C_R   0.069822 0.253580 0.975546 -0.139734
C16   C     C_R   0.001246 0.801872 0.097887 -0.135105
H11   H     H_    0.126861 0.250777 0.947658 0.129904
H12   H     H_    0.979781 0.822768 0.159768 0.134138
N15   N     N_R   0.004980 0.293810 0.946140 -0.044654
N16   N     N_R   0.995020 0.706190 0.053860 -0.046430
C17   C     C_R   0.053009 0.224783 0.049894 0.019826
C18   C     C_R   0.063205 0.868903 0.072808 0.060079
C19   C     C_R   0.323980 0.789768 0.329129 -0.069875
C20   C     C_R   0.711154 0.127128 0.707339 -0.052186
C21   C     C_R   0.298894 0.499066 0.928308 -0.055284
C22   C     C_R   0.675017 0.503700 0.950025 -0.030420
C23   C     C_R   0.926315 0.499001 0.296339 0.056450
C24   C     C_R   0.971279 0.506238 0.678475 0.043195
H13   H     H_    0.321869 0.132439 0.801233 0.170616
H14   H     H_    0.786561 0.846312 0.289490 0.129487
C25   C     C_R   0.167115 0.040265 0.083226 -0.199104
C26   C     C_R   0.055484 0.132660 0.157732 -0.227569
C27   C     C_R   0.177806 0.068430 0.813320 -0.180717
C28   C     C_R   0.952975 0.946226 0.332073 -0.128512
H15   H     H_    0.125805 0.011430 0.727788 0.118126
H16   H     H_    0.987262 0.948061 0.407862 0.123667
Ni1   Ni    Ni4+2 0.869690 0.369690 0.000000 0.283655
Ni2   Ni    Ni4+2 0.130310 0.630310 0.000000 0.275691
Ni3   Ni    Ni4+2 0.001390 0.369680 0.869810 0.209332
Ni4   Ni    Ni4+2 0.998610 0.630320 0.130190 0.205748
C29   C     C_R   0.134685 0.068852 0.882272 -0.184387
C30   C     C_R   0.021460 0.001856 0.301383 -0.174739
H17   H     H_    0.443886 0.259596 0.000124 0.150413
H18   H     H_    0.706271 0.844504 0.117465 0.139810
H19   H     H_    0.613736 0.984516 0.096243 0.160377
H20   H     H_    0.418345 0.925475 0.855329 0.177732
C31   C     C_R   0.602895 0.128565 0.171825 0.296065
C32   C     C_R   0.309939 0.758241 0.725854 0.245625
C33   C     C_R   0.661045 0.241524 0.242884 -0.219972
C34   C     C_R   0.200998 0.673683 0.658074 -0.197476
H21   H     H_    0.617373 0.284505 0.259845 0.139499
H22   H     H_    0.182637 0.595271 0.598476 0.142005
C35   C     C_R   0.775824 0.297456 0.296930 0.087501
C36   C     C_R   0.115393 0.691863 0.663275 0.102893
C37   C     C_R   0.831378 0.238902 0.281464 -0.203928
C38   C     C_R   0.140347 0.795701 0.736900 -0.240762
H23   H     H_    0.920043 0.280039 0.326692 0.128525
H24   H     H_    0.075442 0.812293 0.739813 0.128422
C39   C     C_R   0.772908 0.127682 0.206132 -0.167735
C40   C     C_R   0.249566 0.877791 0.808513 -0.098312
H25   H     H_    0.816861 0.085149 0.192391 0.150242
H26   H     H_    0.268890 0.955558 0.868994 0.178529
C41   C     C_R   0.658636 0.071876 0.151655 -0.052690
C42   C     C_R   0.334157 0.860143 0.801659 -0.053381
C43   C     C_R   0.849935 0.421364 0.485176 -0.228477
C44   C     C_R   0.968951 0.604394 0.481371 -0.235501
H27   H     H_    0.800484 0.350678 0.486782 0.137930
H28   H     H_    0.017302 0.678170 0.484229 0.122120
C45   C     C_R   0.938772 0.513745 0.580990 0.061456
C46   C     C_R   0.902488 0.503549 0.384570 0.061275
C47   C     C_R   0.000809 0.606870 0.578926 0.030843
C48   C     C_R   0.838030 0.410735 0.386501 0.042823
H29   H     H_    0.049342 0.011247 0.849144 0.125054
H30   H     H_    0.109230 0.046695 0.353570 0.122802
H31   H     H_    0.346311 0.321316 0.861565 0.135008
H32   H     H_    0.615940 0.685518 0.967513 0.129119
H33   H     H_    0.367674 0.263364 0.123083 0.126560
H34   H     H_    0.826252 0.926508 0.053066 0.148306
C49   C     C_R   0.202344 0.140802 0.994140 0.113815
C50   C     C_R   0.976443 0.992443 0.199262 0.109858
C51   C     C_R   0.357231 0.207894 0.967107 -0.085852
C52   C     C_R   0.794105 0.884271 0.166206 -0.157035
H35   H     H_    0.136911 0.041476 0.582592 0.092995
H36   H     H_    0.010081 0.115627 0.557079 0.106636
C53   C     C_R   0.261560 0.066841 0.536654 -0.101139
C54   C     C_R   0.918931 0.037533 0.619558 -0.145334
H37   H     H_    0.262971 0.137362 0.530943 0.104623
H38   H     H_    0.990540 0.055186 0.686408 0.117612
C55   C     C_R   0.331912 0.030834 0.516312 -0.098079
C56   C     C_R   0.816189 0.986063 0.609911 -0.124555
H39   H     H_    0.388079 0.074489 0.495513 0.123658
H40   H     H_    0.810026 0.965538 0.670647 0.131486
C57   C     C_R   0.334323 0.942861 0.529090 0.111974
C58   C     C_R   0.723536 0.970677 0.527861 0.106780
C59   C     C_R   0.265144 0.891156 0.561749 -0.145088
C60   C     C_R   0.734036 0.000741 0.451572 -0.162874
H41   H     H_    0.267879 0.824847 0.573998 0.133722
H42   H     H_    0.664044 0.991788 0.389156 0.183721
C61   C     C_R   0.190956 0.923771 0.576493 -0.125494
C62   C     C_R   0.837262 0.053118 0.462449 -0.132727
H43   H     H_    0.135261 0.881325 0.598060 0.117224
H44   H     H_    0.845825 0.081262 0.406945 0.143477
C63   C     C_R   0.190802 0.013026 0.566233 -0.121384
C64   C     C_R   0.929828 0.072419 0.547018 -0.119198
C65   C     C_R   0.521811 0.990060 0.624379 -0.139372
C66   C     C_R   0.522118 0.860894 0.443372 -0.179906
H45   H     H_    0.518799 0.040676 0.692815 0.194221
H46   H     H_    0.522563 0.805847 0.375261 0.166980
C67   C     C_R   0.621075 0.015228 0.624586 0.099136
C68   C     C_R   0.423413 0.855743 0.435402 0.115770
C69   C     C_R   0.622141 0.945835 0.534552 0.014636
C70   C     C_R   0.423965 0.920702 0.528913 -0.015096
C71   C     C_R   0.289048 0.136434 0.855509 -0.098831
C72   C     C_R   0.839463 0.887546 0.264592 -0.082265
C73   C     C_R   0.048293 0.038710 0.160272 0.031691
C74   C     C_R   0.160838 0.123496 0.065681 0.021458
H47   H     H_    0.212401 0.006423 0.054914 0.163636
H48   H     H_    0.015471 0.169985 0.192560 0.118276
C75   C     C_R   0.313841 0.210829 0.036516 -0.133873
C76   C     C_R   0.862245 0.933211 0.131565 -0.193448
C77   C     C_R   0.097357 0.985788 0.112674 0.056762
C78   C     C_R   0.096352 0.165390 0.095706 0.067615
C79   C     C_3   0.460201 0.432763 0.822369 -0.150052
C80   C     C_3   0.505693 0.576690 0.017258 -0.152523
C81   C     C_3   0.440491 0.531846 0.846491 -0.112688
C82   C     C_3   0.522686 0.477554 0.993181 -0.137618
H49   H     H_    0.403381 0.553287 0.786032 0.165452
H50   H     H_    0.557337 0.455716 0.054381 0.128883
H51   H     H_    0.443458 0.374221 0.742322 0.143723
H52   H     H_    0.523729 0.636101 0.097629 0.146884
C83   C     C_3   0.392530 0.502329 0.914916 0.179239
C84   C     C_3   0.572546 0.506223 0.925711 0.190012
C85   C     C_3   0.410050 0.403910 0.890200 -0.137255
C86   C     C_3   0.555563 0.605529 0.949285 -0.125836
I1    I     I_    0.432743 0.042291 0.104704 -0.434823
I2    I     I_    0.437566 0.734115 0.711448 -0.436003
Cl1   Cl    Cl    0.424775 0.826849 0.208818 -0.698192
Cl2   Cl    Cl    0.695753 0.131822 0.884553 -0.677095
I3    I     I_    0.339680 0.718287 0.950651 -0.379323
I4    I     I_    0.546213 0.252623 0.848946 -0.522801

loop_
_geom_bond_atom_site_label_1
_geom_bond_atom_site_label_2
_geom_bond_distance
_ccdc_geom_bond_type
C39   C41   1.394787 A    
C30   H30   1.079887 S    
C25   H47   1.076425 S    
C82   C85   1.535360 S    
C83   C85   1.523547 S    
H33   C75   1.083049 S    
N11   Ni1   1.881063 S    
C66   H46   1.081757 S    
C66   C69   1.397018 A    
C38   C40   1.396767 A    
H20   C42   1.082478 S    
C7    C23   1.387253 A    
C57   C59   1.402119 A    
N15   Ni3   1.874783 S    
C44   C47   1.376743 A    
C15   H11   1.069106 S    
C66   C68   1.406227 A    
N16   Ni4   1.874783 S    
C16   C18   1.369479 A    
N7    N11   1.389554 A    
N8    N12   1.389552 A    
H13   C71   1.077714 S    
C79   C81   1.551903 S    
N10   Ni1   1.871118 S    
C10   N10   1.347304 A    
C53   H37   1.082227 S    
C36   C38   1.402429 A    
C52   C72   1.393895 A    
C25   C77   1.388633 A    
C11   H7    1.072679 S    
C28   H16   1.077613 S    
C5    H3    1.081566 S    
C8    H6    1.080233 S    
C3    N3    1.349789 A    
N7    Ni4   1.874932 S    
C61   H43   1.079447 S    
C7    H5    1.079809 S    
N8    Ni3   1.874933 S    
C5    N5    1.333104 A    
C53   C63   1.395598 A    
C6    N6    1.333760 A    
C22   C84   1.462738 S    
C6    C22   1.374263 A    
C50   C76   1.404390 A    
C80   C83   1.535711 S    
C43   H27   1.084739 S    
C81   C86   1.553479 S    
C54   C56   1.396296 A    
C14   H10   1.071827 S    
H19   C41   1.082666 S    
C53   C55   1.395798 A    
C62   C64   1.396565 A    
C26   H48   1.080193 S    
C28   C72   1.396358 A    
C59   H41   1.080853 S    
N1    N15   1.393713 A    
C45   C47   1.412507 A    
N2    N16   1.393714 A    
C10   C22   1.386269 A    
C33   H21   1.083289 S    
C10   I4    2.111601 S    
H34   C76   1.083320 S    
H18   C52   1.078732 S    
C32   C42   1.396426 A    
C28   C30   1.398692 A    
C44   C46   1.402593 A    
C9    I3    2.115633 S    
C35   C37   1.403485 A    
N6    N10   1.389676 A    
C11   N11   1.332167 A    
C17   C78   1.480281 S    
C30   C50   1.402209 A    
C20   C67   1.472032 S    
C12   N12   1.314424 A    
C38   H24   1.083146 S    
C74   C78   1.416150 A    
C37   H23   1.083749 S    
C26   C73   1.389835 A    
H17   C51   1.080666 S    
C15   N15   1.332466 A    
C43   C45   1.392754 A    
C2    C18   1.404834 A    
C25   C74   1.384621 A    
C2    N2    1.339713 A    
C60   C62   1.396634 A    
C1    H1    1.077492 S    
C3    C19   1.400202 A    
C8    C24   1.402120 A    
C2    H2    1.079323 S    
C4    C20   1.378069 A    
C68   C70   1.412796 A    
C5    C21   1.368371 A    
N6    Ni4   1.867258 S    
C65   C70   1.375441 A    
C3    Cl1   1.748812 S    
C44   H28   1.077916 S    
C36   C47   1.482081 S    
C27   C29   1.389536 A    
N3    N13   1.393835 A    
C27   C71   1.392072 A    
C24   C45   1.449509 S    
C80   C86   1.542208 S    
H36   C64   1.081885 S    
C46   C48   1.420226 A    
C79   C84   1.535339 S    
C56   C58   1.403817 A    
C34   H22   1.083194 S    
C65   C67   1.396035 A    
C58   C60   1.407198 A    
C32   C34   1.399400 A    
C39   H25   1.071854 S    
C6    H4    1.079231 S    
C14   N14   1.331755 A    
H31   C85   1.099880 S    
C19   C68   1.466299 S    
C13   C19   1.374835 A    
C31   C41   1.397521 A    
N4    Ni1   1.880864 S    
C14   C20   1.378886 A    
C29   C49   1.402984 A    
C79   C85   1.542839 S    
C61   C63   1.397321 A    
C1    N1    1.328989 A    
N13   Ni4   1.867394 S    
C60   H42   1.082816 S    
C62   H44   1.082588 S    
N14   Ni3   1.867391 S    
C55   C57   1.404634 A    
C80   H52   1.110938 S    
C73   C77   1.418964 A    
N5    Ni3   1.867260 S    
C8    N8    1.336634 A    
C21   C83   1.458335 S    
C40   C42   1.395605 A    
C80   C82   1.529547 S    
C16   H12   1.065807 S    
C49   C75   1.400428 A    
C51   C75   1.395377 A    
C56   H40   1.083280 S    
C52   C76   1.397830 A    
C59   C61   1.395105 A    
C9    C21   1.364971 A    
C31   I1    2.091796 S    
C35   C48   1.466891 S    
N3    Ni2   1.880863 S    
C32   I2    2.108600 S    
C50   C73   1.472290 S    
C15   C17   1.397258 A    
N4    N14   1.393836 A    
N2    Ni2   1.871154 S    
C43   C48   1.388770 A    
C81   H49   1.109025 S    
C81   C83   1.535148 S    
H35   C63   1.080403 S    
C12   H8    1.070794 S    
C4    Cl2   1.771099 S    
C49   C74   1.461828 S    
C37   C39   1.391054 A    
C11   C23   1.384111 A    
C12   C24   1.371624 A    
C1    C17   1.398084 A    
H14   C72   1.082466 S    
C84   C86   1.532194 S    
C13   H9    1.070456 S    
C13   N13   1.321200 A    
C82   H50   1.110813 S    
N9    Ni2   1.871121 S    
C9    N9    1.341455 A    
C26   C78   1.405429 A    
C79   H51   1.110178 S    
C54   H38   1.074886 S    
C27   H15   1.076964 S    
C23   C46   1.473244 S    
C51   C71   1.399796 A    
C18   C77   1.476667 S    
H32   C86   1.104881 S    
C16   N16   1.314453 A    
C29   H29   1.083614 S    
N5    N9    1.389677 A    
C4    N4    1.337784 A    
C34   C36   1.406862 A    
C31   C33   1.398474 A    
C67   C69   1.412442 A    
C33   C35   1.401111 A    
C40   H26   1.076170 S    
C82   C84   1.534256 S    
N12   Ni2   1.881064 S    
C65   H45   1.079736 S    
C57   C70   1.476361 S    
C58   C69   1.475050 S    
N1    Ni1   1.871155 S    
C54   C64   1.396514 A    
C55   H39   1.083447 S    
C7    N7    1.324253 A    
