data_str_m9_o3_o18_f0_sra.sym.15
_audit_creation_date              2012-12-11T16:44:14-0500
_audit_creation_method            fapswitch 2.2
_symmetry_space_group_name_H-M    P1
_symmetry_Int_Tables_number       1
_space_group_crystal_system       triclinic
_cell_length_a                    26.993938
_cell_length_b                    7.193936
_cell_length_c                    22.920139
_cell_angle_alpha                 90.0
_cell_angle_beta                  101.87821
_cell_angle_gamma                 90.006533
_cell_volume                      4355.6166666

loop_
_atom_site_label
_atom_site_type_symbol
_atom_type_description
_atom_site_fract_x
_atom_site_fract_y
_atom_site_fract_z
_atom_type_partial_charge
O1    O     O_R   0.707300 0.594030 0.176840 -0.532154
O2    O     O_R   0.292700 0.405970 0.823160 -0.532157
O3    O     O_R   0.792700 0.094030 0.323160 -0.532134
O4    O     O_R   0.207300 0.905970 0.676840 -0.532134
O5    O     O_R   0.697330 0.262360 0.295660 -0.541492
O6    O     O_R   0.302670 0.737640 0.704340 -0.541493
O7    O     O_R   0.802670 0.762360 0.204340 -0.541470
O8    O     O_R   0.197330 0.237640 0.795660 -0.541474
C1    C     C_R   0.684973 0.432405 0.312032 0.671454
C2    C     C_R   0.315027 0.567595 0.687968 0.671455
C3    C     C_R   0.815026 0.932415 0.187968 0.671467
C4    C     C_R   0.184974 0.067584 0.812033 0.671467
O9    O     O_R   0.701410 0.264250 0.175600 -0.534804
O10   O     O_R   0.298590 0.735750 0.824400 -0.534801
O11   O     O_R   0.798590 0.764250 0.324400 -0.534827
O12   O     O_R   0.201410 0.235750 0.675600 -0.534827
O13   O     O_R   0.796800 0.094950 0.202240 -0.538010
O14   O     O_R   0.203200 0.905050 0.797760 -0.538007
O15   O     O_R   0.703200 0.594950 0.297760 -0.537998
O16   O     O_R   0.296800 0.405050 0.702240 -0.537997
C5    C     C_R   0.689728 0.432829 0.153323 0.714958
C6    C     C_R   0.310271 0.567172 0.846677 0.714961
C7    C     C_R   0.810272 0.932850 0.346678 0.714940
C8    C     C_R   0.189728 0.067150 0.653322 0.714940
O17   O     O_3   0.781290 0.427390 0.258880 -0.371419
O18   O     O_3   0.218710 0.572610 0.741120 -0.371419
O19   O     O_3   0.718710 0.927390 0.241120 -0.371424
O20   O     O_3   0.281290 0.072610 0.758880 -0.371424
V1    V     V_3+5 0.744190 0.152150 0.248350 1.400283
V2    V     V_3+5 0.255810 0.847850 0.751650 1.400287
V3    V     V_3+5 0.755810 0.652150 0.251650 1.400300
V4    V     V_3+5 0.244190 0.347850 0.748350 1.400296
C9    C     C_R   0.156231 0.057795 0.593448 -0.077312
C10   C     C_R   0.843768 0.942204 0.406552 -0.077312
C11   C     C_R   0.343774 0.557987 0.906549 -0.077293
C12   C     C_R   0.656218 0.442018 0.093456 -0.077303
C13   C     C_R   0.143962 0.028691 0.485058 0.095834
C14   C     C_R   0.856036 0.971292 0.514943 0.095830
C15   C     C_R   0.356077 0.531218 0.015003 0.095890
C16   C     C_R   0.643902 0.468795 0.985000 0.095875
C17   C     C_R   0.176796 0.056227 0.541635 0.141423
C18   C     C_R   0.823203 0.943764 0.458365 0.141420
C19   C     C_R   0.323237 0.557899 0.958385 0.141344
C20   C     C_R   0.676745 0.442039 0.041613 0.141374
C21   C     C_R   0.103777 0.046177 0.588757 -0.268013
C22   C     C_R   0.896223 0.953821 0.411245 -0.268017
C23   C     C_R   0.396212 0.545585 0.911223 -0.267995
C24   C     C_R   0.603783 0.454502 0.088793 -0.267993
C25   C     C_R   0.069935 0.033749 0.532896 0.067167
C26   C     C_R   0.930063 0.966244 0.467106 0.067168
C27   C     C_R   0.430071 0.533995 0.967090 0.067197
C28   C     C_R   0.569918 0.466119 0.032931 0.067214
C29   C     C_R   0.091029 0.001745 0.482130 0.026337
C30   C     C_R   0.908969 0.998243 0.517873 0.026333
C31   C     C_R   0.408986 0.503583 0.017954 0.026409
C32   C     C_R   0.590998 0.496518 0.982063 0.026391
C33   C     C_R   0.015744 0.036623 0.526632 0.024507
C34   C     C_R   0.984254 0.963367 0.473373 0.024516
C35   C     C_R   0.484261 0.536259 0.973307 0.024525
C36   C     C_R   0.515728 0.463896 0.026721 0.024519
C37   C     C_R   0.008537 0.887328 0.429168 0.160919
C38   C     C_R   0.991461 0.112655 0.570838 0.160921
C39   C     C_R   0.491420 0.389355 0.071133 0.161015
C40   C     C_R   0.508568 0.610833 0.928900 0.161008
C41   C     C_R   0.059622 0.925495 0.431240 -0.211184
C42   C     C_R   0.940375 0.074486 0.568764 -0.211180
C43   C     C_R   0.440367 0.428226 0.069010 -0.211125
C44   C     C_R   0.559619 0.571953 0.931016 -0.211182
H1    H     H_    0.075650 0.873695 0.394900 0.139265
H2    H     H_    0.924346 0.126279 0.605105 0.139261
H3    H     H_    0.424328 0.377646 0.105498 0.139197
H4    H     H_    0.575658 0.622571 0.894532 0.139265
H5    H     H_    0.909932 0.962357 0.370294 0.134743
H6    H     H_    0.090069 0.037637 0.629709 0.134740
H7    H     H_    0.590118 0.464207 0.129748 0.134768
H8    H     H_    0.409886 0.535920 0.870271 0.134769
C45   C     C_R   0.866099 0.116892 0.127877 -0.160329
C46   C     C_R   0.133903 0.883107 0.872125 -0.160334
C47   C     C_R   0.633880 0.616881 0.372086 -0.160345
C48   C     C_R   0.366121 0.383119 0.627914 -0.160344
H9    H     H_    0.848321 0.243835 0.138561 0.127800
H10   H     H_    0.151680 0.756164 0.861439 0.127799
H11   H     H_    0.651641 0.743841 0.361373 0.127775
H12   H     H_    0.348360 0.256158 0.638627 0.127775
C49   C     C_R   0.901757 0.129489 0.091606 -0.147511
C50   C     C_R   0.098246 0.870510 0.908398 -0.147510
C51   C     C_R   0.598222 0.629478 0.408357 -0.147528
C52   C     C_R   0.401778 0.370522 0.591643 -0.147527
H13   H     H_    0.909846 0.264923 0.075173 0.101832
H14   H     H_    0.090158 0.735076 0.924831 0.101832
H15   H     H_    0.590118 0.764927 0.424762 0.101834
H16   H     H_    0.409882 0.235073 0.575239 0.101834
C53   C     C_R   0.925912 0.969579 0.075842 0.094432
C54   C     C_R   0.074093 0.030421 0.924164 0.094433
C55   C     C_R   0.574087 0.469553 0.424158 0.094428
C56   C     C_R   0.425913 0.530448 0.575843 0.094428
C57   C     C_R   0.913123 0.796149 0.097187 -0.144069
C58   C     C_R   0.086882 0.203852 0.902820 -0.144060
C59   C     C_R   0.586896 0.296106 0.402851 -0.144027
C60   C     C_R   0.413104 0.703895 0.597150 -0.144029
H17   H     H_    0.931326 0.670175 0.086500 0.100546
H18   H     H_    0.068680 0.329826 0.913509 0.100543
H19   H     H_    0.568709 0.170117 0.413567 0.100542
H20   H     H_    0.431291 0.829884 0.586433 0.100540
C61   C     C_R   0.877298 0.783336 0.133509 -0.165189
C62   C     C_R   0.122705 0.216665 0.866496 -0.165180
C63   C     C_R   0.622721 0.283293 0.366528 -0.165180
C64   C     C_R   0.377280 0.716707 0.633472 -0.165181
H21   H     H_    0.868564 0.647563 0.149139 0.122794
H22   H     H_    0.131440 0.352439 0.850867 0.122796
H23   H     H_    0.631471 0.147508 0.350927 0.122809
H24   H     H_    0.368528 0.852492 0.649073 0.122808
C65   C     C_R   0.853360 0.943754 0.149540 -0.051072
C66   C     C_R   0.146642 0.056246 0.850462 -0.051072
C67   C     C_R   0.646638 0.443728 0.350459 -0.051103
C68   C     C_R   0.353362 0.556272 0.649541 -0.051102
C69   C     C_R   0.966549 0.849514 0.993458 -0.153042
C70   C     C_R   0.033458 0.150484 0.006550 -0.153039
C71   C     C_R   0.533471 0.349585 0.506577 -0.153031
C72   C     C_R   0.466530 0.650415 0.493424 -0.153031
H25   H     H_    0.940469 0.733409 0.986778 0.109025
H26   H     H_    0.059537 0.266589 0.013230 0.109026
H27   H     H_    0.559562 0.233539 0.513280 0.109026
H28   H     H_    0.440438 0.766462 0.486721 0.109027
C73   C     C_R   0.001947 0.864900 0.956792 -0.153655
C74   C     C_R   0.998059 0.135098 0.043216 -0.153655
C75   C     C_R   0.498075 0.364990 0.543246 -0.153663
C76   C     C_R   0.501925 0.635011 0.456755 -0.153659
H29   H     H_    0.002129 0.759903 0.922996 0.107654
H30   H     H_    0.997876 0.240095 0.077012 0.107655
H31   H     H_    0.497908 0.260064 0.577067 0.107656
H32   H     H_    0.502093 0.739937 0.422933 0.107658
C77   C     C_R   0.035938 0.015542 0.962835 0.082116
C78   C     C_R   0.964068 0.984457 0.037173 0.082117
C79   C     C_R   0.464069 0.515561 0.537173 0.082114
C80   C     C_R   0.535932 0.484440 0.462828 0.082115
C81   C     C_3   0.766178 0.921845 0.450813 -0.807183
H33   H     H_    0.754454 0.785074 0.430009 0.206188
H34   H     H_    0.751623 0.930001 0.492310 0.210501
H35   H     H_    0.746689 0.033463 0.421271 0.202979
C82   C     C_3   0.233820 0.078138 0.549187 -0.807193
H36   H     H_    0.245545 0.214912 0.569987 0.206188
H37   H     H_    0.253309 0.966526 0.578731 0.202980
H38   H     H_    0.248375 0.069968 0.507690 0.210507
C83   C     C_3   0.733745 0.419336 0.049156 -0.807091
H39   H     H_    0.745348 0.282692 0.070121 0.206430
H40   H     H_    0.748284 0.426678 0.007634 0.210489
H41   H     H_    0.753353 0.531084 0.078552 0.202691
C84   C     C_3   0.266232 0.580462 0.950832 -0.807117
H42   H     H_    0.254610 0.717115 0.929887 0.206413
H43   H     H_    0.246646 0.468722 0.921416 0.202719
H44   H     H_    0.251687 0.572981 0.992348 0.210585
C85   C     C_3   0.164799 0.032517 0.428117 -0.362382
C86   C     C_3   0.187196 0.843283 0.416299 -0.301954
C87   C     C_3   0.209362 0.849070 0.360258 -0.774496
H45   H     H_    0.179516 0.885230 0.320825 0.229162
H46   H     H_    0.240301 0.953371 0.365363 0.229491
H47   H     H_    0.225066 0.710542 0.352731 0.218684
H48   H     H_    0.217458 0.801934 0.454649 0.205767
H49   H     H_    0.157295 0.734817 0.410653 0.191152
H50   H     H_    0.135067 0.073292 0.389181 0.164592
H51   H     H_    0.193165 0.145162 0.430104 0.177215
C88   C     C_3   0.835199 0.967428 0.571887 -0.362369
C89   C     C_3   0.812799 0.156654 0.583716 -0.301866
C90   C     C_3   0.790638 0.150815 0.639766 -0.774413
H52   H     H_    0.759708 0.046462 0.634664 0.229466
H53   H     H_    0.820492 0.114689 0.679197 0.229131
H54   H     H_    0.774923 0.289328 0.647297 0.218659
H55   H     H_    0.842698 0.265145 0.589365 0.191111
H56   H     H_    0.782532 0.198005 0.545368 0.205735
H57   H     H_    0.806835 0.854770 0.569895 0.177196
H58   H     H_    0.864934 0.926640 0.610819 0.164586
C91   C     C_3   0.335278 0.536895 0.071960 -0.362318
C92   C     C_3   0.312774 0.348307 0.084289 -0.302271
C93   C     C_3   0.290468 0.356157 0.140197 -0.774827
H59   H     H_    0.320232 0.393452 0.179562 0.229323
H60   H     H_    0.259536 0.460471 0.134644 0.229565
H61   H     H_    0.274731 0.218030 0.148143 0.218712
H62   H     H_    0.282575 0.306045 0.046005 0.205822
H63   H     H_    0.342634 0.239712 0.090367 0.191138
H64   H     H_    0.365053 0.578325 0.110774 0.164510
H65   H     H_    0.306983 0.649889 0.069698 0.177356
C94   C     C_3   0.664685 0.463137 0.928033 -0.362336
C95   C     C_3   0.687203 0.651713 0.915718 -0.301952
C96   C     C_3   0.709274 0.644112 0.859622 -0.774448
H66   H     H_    0.740110 0.539376 0.864903 0.229498
H67   H     H_    0.679351 0.607510 0.820315 0.229141
H68   H     H_    0.725089 0.782166 0.851743 0.218649
H69   H     H_    0.657390 0.760537 0.909871 0.191078
H70   H     H_    0.717541 0.693550 0.953927 0.205662
H71   H     H_    0.692969 0.350114 0.930265 0.177215
H72   H     H_    0.634895 0.421772 0.889225 0.164609
C97   C     C_3   0.984774 0.742354 0.384186 -0.796920
H73   H     H_    0.951811 0.673458 0.396917 0.221663
H74   H     H_    0.974060 0.805206 0.339113 0.202289
H75   H     H_    0.012318 0.628924 0.382130 0.209449
C98   C     C_3   0.015223 0.257620 0.615824 -0.796897
H76   H     H_    0.025942 0.194749 0.660895 0.202283
H77   H     H_    0.048183 0.326535 0.603090 0.221660
H78   H     H_    0.987677 0.371042 0.617889 0.209439
C99   C     C_3   0.515099 0.245183 0.116447 -0.797090
H79   H     H_    0.547990 0.175410 0.103841 0.221598
H80   H     H_    0.525897 0.309051 0.161366 0.202321
H81   H     H_    0.487473 0.132256 0.118812 0.209399
C100  C     C_3   0.484890 0.755043 0.883597 -0.797070
H82   H     H_    0.474102 0.691219 0.838670 0.202315
H83   H     H_    0.451991 0.824767 0.896203 0.221599
H84   H     H_    0.512513 0.868002 0.881253 0.209403

loop_
_geom_bond_atom_site_label_1
_geom_bond_atom_site_label_2
_ccdc_geom_bond_type
O17   V3    S    
C59   H19   S    
C52   C56   A    
O1    C5    A    
C90   H52   S    
C47   C67   A    
C87   H46   S    
C9    C21   A    
C99   H79   S    
O3    C7    A    
C88   C89   S    
C10   C18   A    
C60   H20   S    
C15   C91   S    
C11   C23   A    
C94   H72   S    
C47   C51   A    
C83   H39   S    
C96   H66   S    
C25   C33   A    
C33   C38   A    
C93   H60   S    
C5    C12   S    
C100  H82   S    
C17   C82   S    
C6    C11   S    
C81   H34   S    
C35   C40   A    
C26   C30   A    
C62   C66   A    
C36   C39   A    
C40   C44   A    
C61   C65   A    
C89   C90   S    
C75   C79   A    
C23   H8    S    
C14   C18   A    
C51   H15   S    
C84   H43   S    
C62   H22   S    
O4    C8    A    
C55   C59   A    
C96   H67   S    
C43   H3    S    
O19   V1    S    
C89   H56   S    
C54   C58   A    
C73   C77   A    
O1    V3    S    
C54   C77   S    
O13   V1    S    
C95   C96   S    
O2    V4    S    
C70   H26   S    
C32   C44   A    
C98   H77   S    
C69   H25   S    
C92   C93   S    
C50   C54   A    
C49   C53   A    
C1    O15   A    
C15   C31   A    
C48   C68   A    
C2    O16   A    
C16   C32   A    
C51   C55   A    
O2    C6    A    
C10   C22   A    
C45   H9    S    
C93   H61   S    
C11   C19   A    
O15   V3    S    
C16   C20   A    
C4    C66   S    
C19   C84   S    
C48   H12   S    
C16   C94   S    
C13   C29   A    
C46   C50   A    
C34   C37   A    
O11   C7    A    
C81   H33   S    
C45   C49   A    
C35   C36   A    
O12   C8    A    
C87   H47   S    
C99   H80   S    
C24   H7    S    
C89   H55   S    
C46   C66   A    
O10   V2    S    
C45   C65   A    
C69   C78   A    
C76   H32   S    
C83   H40   S    
C56   C79   S    
O5    V1    S    
C100  H83   S    
C81   H35   S    
C39   C43   A    
C60   C64   A    
O7    V3    S    
C38   C42   A    
O8    V4    S    
C13   C85   S    
C44   H4    S    
C53   C78   S    
C50   H14   S    
C82   H38   S    
C49   H13   S    
O18   V4    S    
C96   H68   S    
C15   C19   A    
C97   H74   S    
C91   C92   S    
O4    V2    S    
C64   H24   S    
C85   H50   S    
C21   H6    S    
C26   C34   A    
C98   H78   S    
O7    C3    A    
C94   C95   S    
C86   H49   S    
C37   C41   A    
C46   H10   S    
C53   C57   A    
C31   C43   A    
C93   H59   S    
C14   C30   A    
C21   C25   A    
O8    C4    A    
C7    C10   S    
C29   C41   A    
C20   C83   S    
O9    C5    A    
C52   H16   S    
C88   H58   S    
C63   C67   A    
C86   C87   S    
C70   C77   A    
O14   V2    S    
C14   C88   S    
O6    V2    S    
C76   C80   A    
C91   H65   S    
C90   H54   S    
O10   C6    A    
C99   H81   S    
C95   H70   S    
C84   H44   S    
C27   C35   A    
C37   C97   S    
C83   H41   S    
C88   H57   S    
O16   V4    S    
C100  H84   S    
O9    V1    S    
C61   H21   S    
C3    O13   A    
C1    C67   S    
C39   C99   S    
C63   H23   S    
C8    C9    S    
C38   C98   S    
O5    C1    A    
C90   H53   S    
C94   H71   S    
O6    C2    A    
C23   C27   A    
C72   C76   A    
O11   V3    S    
C30   C42   A    
C71   H27   S    
O12   V4    S    
C59   C63   A    
C40   C100  S    
C22   C26   A    
C92   H63   S    
C71   C80   A    
C58   C62   A    
C85   H51   S    
C72   C79   A    
C9    C17   A    
C64   C68   A    
C82   H37   S    
C57   C61   A    
C86   H48   S    
C48   C52   A    
C58   H18   S    
C82   H36   S    
C97   H75   S    
C47   H11   S    
O3    V1    S    
C33   C34   A    
C42   H2    S    
C41   H1    S    
C56   C60   A    
O20   V2    S    
C55   C80   S    
C12   C24   A    
C27   C31   A    
C13   C17   A    
C98   H76   S    
C3    C65   S    
C2    C68   S    
C75   H31   S    
C25   C29   A    
C12   C20   A    
C72   H28   S    
C91   H64   S    
C73   H29   S    
C24   C28   A    
C74   C78   A    
C28   C36   A    
C97   H73   S    
C4    O14   A    
C87   H45   S    
C74   H30   S    
C95   H69   S    
C70   C74   A    
C85   C86   S    
C84   H42   S    
C69   C73   A    
C92   H62   S    
C22   H5    S    
C57   H17   S    
C28   C32   A    
C18   C81   S    
C71   C75   A    
