data_str_m4_o4_o14_f0_acs.sym.11
_audit_creation_date              2012-12-11T15:42:57-0500
_audit_creation_method            fapswitch 2.2
_symmetry_space_group_name_H-M    P1
_symmetry_Int_Tables_number       1
_space_group_crystal_system       triclinic
_cell_length_a                    19.424804
_cell_length_b                    10.953326
_cell_length_c                    18.779365
_cell_angle_alpha                 89.769807
_cell_angle_beta                  90.738974
_cell_angle_gamma                 90.067634
_cell_volume                      3995.2472177

loop_
_atom_site_label
_atom_site_type_symbol
_atom_type_description
_atom_site_fract_x
_atom_site_fract_y
_atom_site_fract_z
_atom_type_partial_charge
C1    C     C_R   0.727846 0.373583 0.144512 0.561060
C2    C     C_R   0.000551 0.010284 0.038159 -0.103668
C3    C     C_R   0.741892 0.409891 0.580715 0.003059
C4    C     C_R   0.714912 0.341978 0.359989 0.550480
C5    C     C_R   0.289363 0.329052 0.640875 0.576094
C6    C     C_R   0.214912 0.841980 0.359989 0.550469
C7    C     C_R   0.789362 0.829054 0.640875 0.576074
C8    C     C_R   0.533972 0.156487 0.353992 0.585630
C9    C     C_R   0.466537 0.157782 0.646157 0.577020
C10   C     C_R   0.033974 0.656487 0.353994 0.585627
C11   C     C_R   0.966538 0.657782 0.646157 0.577033
C12   C     C_R   0.744408 0.964299 0.351141 0.537410
C13   C     C_R   0.491745 0.509202 0.965389 -0.063973
C14   C     C_R   0.257434 0.969534 0.647337 0.537863
C15   C     C_R   0.244408 0.464298 0.351140 0.537415
C16   C     C_R   0.757434 0.469534 0.647337 0.537866
C17   C     C_R   0.483131 0.168758 0.930853 -0.008098
C18   C     C_R   0.496251 0.173267 0.079030 0.004221
C19   C     C_R   0.983124 0.668757 0.930855 -0.008028
C20   C     C_R   0.996248 0.673270 0.079032 0.004250
C21   C     C_R   0.491433 0.284428 0.965640 0.018859
C22   C     C_R   0.497868 0.286294 0.040961 0.054724
C23   C     C_R   0.991431 0.784428 0.965641 0.018854
C24   C     C_R   0.500544 0.510282 0.038161 -0.103623
C25   C     C_R   0.997869 0.786296 0.040962 0.054726
C26   C     C_R   0.475929 0.067307 0.044674 -0.096039
C27   C     C_R   0.472794 0.063672 0.971962 -0.094018
C28   C     C_R   0.975916 0.567313 0.044679 -0.096028
C29   C     C_R   0.972778 0.563675 0.971966 -0.094032
C30   C     C_R   0.761154 0.895920 0.930844 0.019517
C31   C     C_R   0.241973 0.907948 0.071256 -0.026243
C32   C     C_R   0.261156 0.395911 0.930845 0.019490
C33   C     C_R   0.741972 0.407943 0.071255 -0.026241
C34   C     C_R   0.695401 0.908064 0.958756 -0.034605
C35   C     C_R   0.302555 0.874063 0.037202 -0.099117
C36   C     C_R   0.195404 0.408057 0.958756 -0.034303
C37   C     C_R   0.272616 0.371786 0.855964 0.577450
C38   C     C_R   0.802551 0.374049 0.037200 -0.099116
C39   C     C_R   0.687352 0.917799 0.032657 0.064120
C40   C     C_R   0.308078 0.882293 0.963103 0.033829
C41   C     C_R   0.187356 0.417808 0.032656 0.064146
C42   C     C_R   0.808072 0.382278 0.963100 0.033834
C43   C     C_R   0.808556 0.879970 0.051393 0.068515
C44   C     C_R   0.187683 0.935549 0.955741 0.075185
C45   C     C_R   0.308557 0.379965 0.051394 0.068501
C46   C     C_R   0.687680 0.435554 0.955741 0.075201
C47   C     C_R   0.816553 0.874061 0.978001 -0.059897
C48   C     C_R   0.227847 0.873584 0.144513 0.561061
C49   C     C_R   0.185228 0.941904 0.028965 -0.042799
C50   C     C_R   0.316555 0.374051 0.978003 -0.059954
C51   C     C_R   0.685227 0.441904 0.028965 -0.042767
C52   C     C_3   0.639590 0.815372 0.950951 -0.001590
C53   C     C_3   0.336691 0.752330 0.041184 0.037878
C54   C     C_3   0.139594 0.315364 0.950961 -0.001667
C55   C     C_3   0.836678 0.252308 0.041178 0.037883
C56   C     C_3   0.632169 0.821648 0.030634 0.736208
C57   C     C_3   0.344232 0.761325 0.961340 0.738217
C58   C     C_3   0.132166 0.321671 0.030643 0.736020
C59   C     C_R   0.772615 0.871790 0.855963 0.577388
C60   C     C_3   0.844215 0.261302 0.961334 0.738220
C61   C     C_R   0.745223 0.914285 0.078207 0.025402
C62   C     C_R   0.250134 0.914271 0.921817 0.035614
C63   C     C_R   0.245226 0.414289 0.078207 0.025396
C64   C     C_R   0.750130 0.414270 0.921816 0.035610
C65   C     C_R   0.530344 0.157099 0.148041 0.542973
C66   C     C_R   0.465192 0.156113 0.855283 0.531774
C67   C     C_R   0.030343 0.657099 0.148041 0.542984
C68   C     C_R   0.965190 0.656113 0.855284 0.531838
C69   C     C_R   0.495749 0.171116 0.575808 -0.033360
C70   C     C_R   0.489477 0.398914 0.929181 -0.079358
C71   C     C_R   0.516529 0.162332 0.428225 -0.030428
C72   C     C_R   0.995754 0.671116 0.575810 -0.033339
C73   C     C_R   0.016535 0.662333 0.428227 -0.030421
C74   C     C_R   0.535642 0.079258 0.546292 -0.061532
C75   C     C_R   0.547455 0.077532 0.474222 -0.041534
C76   C     C_R   0.035639 0.579250 0.546292 -0.061512
C77   C     C_R   0.047455 0.577524 0.474223 -0.041534
C78   C     C_R   0.482566 0.262166 0.457270 0.343570
C79   C     C_R   0.473495 0.267592 0.530898 0.321947
C80   C     C_R   0.982580 0.762175 0.457273 0.343577
C81   C     C_R   0.502411 0.401367 0.075838 -0.089486
C82   C     C_R   0.973510 0.767601 0.530902 0.321939
C83   C     C_3   0.533532 0.942176 0.551090 -0.016870
C84   C     C_3   0.546504 0.941305 0.471424 -0.008610
C85   C     C_3   0.033528 0.442168 0.551089 -0.016868
C86   C     C_3   0.046504 0.441298 0.471425 -0.008610
C87   C     C_R   0.783112 0.843439 0.563099 0.009338
C88   C     C_R   0.225931 0.875358 0.433795 0.003067
C89   C     C_R   0.283107 0.343444 0.563101 0.009394
C90   C     C_R   0.725931 0.375349 0.433796 0.003079
C91   C     C_R   0.814734 0.942537 0.531967 0.114773
C92   C     C_R   0.989479 0.898913 0.929181 -0.079340
C93   C     C_R   0.168322 0.897215 0.476442 -0.017807
C94   C     C_R   0.314705 0.442568 0.531974 0.114714
C95   C     C_R   0.668323 0.397209 0.476442 -0.017806
C96   C     C_R   0.814274 0.962592 0.460552 0.137945
C97   C     C_R   0.177237 0.920689 0.548102 0.039872
C98   C     C_R   0.314253 0.462621 0.460561 0.137936
C99   C     C_R   0.677238 0.420688 0.548101 0.039873
C100  C     C_R   0.747099 0.783925 0.441635 -0.153093
C101  C     C_R   0.296224 0.867152 0.540307 -0.180587
C102  C     C_R   0.247112 0.283922 0.441633 -0.153071
C103  C     C_R   0.002418 0.901370 0.075837 -0.089492
C104  C     C_R   0.796222 0.367137 0.540309 -0.180591
C105  C     C_R   0.757638 0.753954 0.515208 -0.185985
C106  C     C_R   0.290741 0.864967 0.466357 -0.175303
C107  C     C_R   0.257656 0.253946 0.515205 -0.185960
C108  C     C_R   0.790740 0.364945 0.466359 -0.175318
C109  C     C_3   0.824888 0.071649 0.552551 -0.209338
C110  C     C_3   0.114114 0.994672 0.469443 -0.253250
C111  C     C_3   0.324855 0.571678 0.552561 -0.209346
C112  C     C_3   0.614104 0.494644 0.469444 -0.253251
C113  C     C_R   0.740124 0.968660 0.148112 0.543176
C114  C     C_R   0.991750 0.009202 0.965387 -0.063992
C115  C     C_R   0.259216 0.968075 0.851777 0.555081
C116  C     C_R   0.240125 0.468660 0.148112 0.543192
C117  C     C_R   0.759215 0.468074 0.851776 0.555082
C118  C     C_3   0.825586 0.095296 0.472876 -0.048795
C119  C     C_3   0.125224 0.021805 0.548141 -0.051182
C120  C     C_3   0.325560 0.595325 0.472886 -0.048783
C121  C     C_3   0.625210 0.521776 0.548142 -0.051191
C122  C     C_R   0.767828 0.900188 0.416729 0.017261
C123  C     C_R   0.241893 0.909892 0.580714 0.003044
C124  C     C_R   0.267823 0.400198 0.416732 0.017301
Cr1   Cr    Cr6+3 0.772010 0.169670 0.250090 0.999030
Cr2   Cr    Cr6+3 0.383290 0.010760 0.749160 1.074841
Cr3   Cr    Cr6+3 0.116710 0.510760 0.250840 1.089563
Cr4   Cr    Cr6+3 0.883290 0.510760 0.749160 1.074856
Cr5   Cr    Cr6+3 0.227990 0.169670 0.749910 1.009446
Cr6   Cr    Cr6+3 0.272010 0.669670 0.250090 0.999028
Cr7   Cr    Cr6+3 0.727990 0.669670 0.749910 1.009437
Cr8   Cr    Cr6+3 0.615000 0.323260 0.249260 1.045073
Cr9   Cr    Cr6+3 0.385000 0.323260 0.750740 1.057785
Cr10  Cr    Cr6+3 0.115000 0.823260 0.249260 1.045079
Cr11  Cr    Cr6+3 0.885000 0.823260 0.750740 1.057787
Cr12  Cr    Cr6+3 0.616710 0.010760 0.250840 1.089545
F1    F     F_    0.455723 0.350709 0.414463 -0.637677
F2    F     F_    0.307334 0.672742 0.924762 -0.632652
F3    F     F_    0.151635 0.214672 0.064874 -0.653112
F4    F     F_    0.807306 0.172729 0.924758 -0.632658
F5    F     F_    0.440454 0.364606 0.557933 -0.655521
F6    F     F_    0.955744 0.850725 0.414467 -0.637696
F7    F     F_    0.940486 0.864631 0.557939 -0.655554
F8    F     F_    0.569381 0.863743 0.053239 -0.596958
F9    F     F_    0.411264 0.771597 0.938454 -0.631671
F10   F     F_    0.069381 0.363791 0.053240 -0.597094
F11   F     F_    0.911245 0.271559 0.938442 -0.631807
F12   F     F_    0.651648 0.714642 0.064851 -0.653133
H1    H     H_    0.467575 0.983662 0.074060 0.215895
H2    H     H_    0.343318 0.841620 0.566366 0.167451
H3    H     H_    0.219883 0.221526 0.406745 0.139331
H4    H     H_    0.843316 0.341605 0.566370 0.167445
H5    H     H_    0.746066 0.664015 0.534303 0.119706
H6    H     H_    0.335926 0.846556 0.435188 0.167594
H7    H     H_    0.246116 0.163989 0.534293 0.119693
H8    H     H_    0.835924 0.346524 0.435192 0.167598
H9    H     H_    0.875012 0.087673 0.580251 0.198683
H10   H     H_    0.062729 0.957431 0.456172 0.205408
H11   H     H_    0.374976 0.587703 0.580266 0.198680
H12   H     H_    0.459896 0.977084 0.948083 0.235617
H13   H     H_    0.562724 0.457385 0.456170 0.205387
H14   H     H_    0.778914 0.110252 0.578949 0.108977
H15   H     H_    0.130212 0.071076 0.434307 0.129611
H16   H     H_    0.278876 0.610277 0.578955 0.108979
H17   H     H_    0.630193 0.571055 0.434310 0.129612
H18   H     H_    0.780998 0.146599 0.451775 0.152186
H19   H     H_    0.144794 0.114810 0.558046 0.167471
H20   H     H_    0.280972 0.646622 0.451778 0.152177
H21   H     H_    0.644763 0.614791 0.558050 0.167466
H22   H     H_    0.492042 0.409819 0.872484 0.159549
H23   H     H_    0.967558 0.483671 0.074066 0.215850
H24   H     H_    0.501181 0.412103 0.132745 0.148868
H25   H     H_    0.992043 0.909817 0.872483 0.159556
H26   H     H_    0.001190 0.912109 0.132743 0.148869
H27   H     H_    0.991966 0.094096 0.935914 0.188198
H28   H     H_    0.007288 0.095953 0.065630 0.192240
H29   H     H_    0.491959 0.594097 0.935917 0.188249
H30   H     H_    0.507279 0.595950 0.065633 0.192256
H31   H     H_    0.864459 0.842895 0.957422 0.155995
H32   H     H_    0.136159 0.961882 0.052345 0.203603
H33   H     H_    0.364460 0.342878 0.957424 0.156002
H34   H     H_    0.959869 0.477090 0.948089 0.235457
H35   H     H_    0.636158 0.461885 0.052346 0.203614
H36   H     H_    0.157344 0.225507 0.931096 0.134082
H37   H     H_    0.801694 0.177529 0.058241 0.150354
H38   H     H_    0.657344 0.725529 0.931070 0.134091
H39   H     H_    0.301711 0.677543 0.058245 0.150357
H40   H     H_    0.965578 0.300767 0.553437 0.229908
H41   H     H_    0.930469 0.437989 0.532991 0.227081
H42   H     H_    0.110817 0.297699 0.465840 0.215043
H43   H     H_    0.150081 0.429575 0.488915 0.226513
H44   H     H_    0.465579 0.800777 0.553422 0.229920
H45   H     H_    0.574982 0.902918 0.585620 0.163954
H46   H     H_    0.430471 0.938016 0.533009 0.227085
H47   H     H_    0.610819 0.797709 0.465840 0.215038
H48   H     H_    0.650083 0.929596 0.488901 0.226526
H49   H     H_    0.892214 0.138742 0.392470 0.275686
H50   H     H_    0.931545 0.076241 0.464094 0.298019
H51   H     H_    0.060143 0.901751 0.600225 0.276541
H52   H     H_    0.022468 0.034396 0.571048 0.275959
H53   H     H_    0.392190 0.638802 0.392487 0.275669
H54   H     H_    0.431519 0.576261 0.464101 0.298009
H55   H     H_    0.560157 0.401680 0.600236 0.276475
H56   H     H_    0.504373 0.903511 0.437226 0.167868
H57   H     H_    0.522455 0.534298 0.571037 0.276016
H58   H     H_    0.842727 0.765441 0.128484 0.242433
H59   H     H_    0.876509 0.907570 0.132655 0.251205
H60   H     H_    0.126004 0.888722 0.871364 0.251230
H61   H     H_    0.116003 0.035662 0.901815 0.250118
H62   H     H_    0.342724 0.265387 0.128456 0.242439
H63   H     H_    0.376492 0.407508 0.132680 0.251217
H64   H     H_    0.625998 0.388742 0.871364 0.251217
H65   H     H_    0.616004 0.535681 0.901819 0.250116
H66   H     H_    0.542178 0.798008 0.911782 0.279730
H67   H     H_    0.074974 0.402910 0.585622 0.163952
H68   H     H_    0.594982 0.875731 0.858595 0.238292
H69   H     H_    0.408401 0.671075 0.104412 0.224810
H70   H     H_    0.397685 0.816906 0.123174 0.235685
H71   H     H_    0.042077 0.298193 0.912048 0.280062
H72   H     H_    0.094918 0.375179 0.858520 0.238264
H73   H     H_    0.908387 0.171037 0.104400 0.224815
H74   H     H_    0.897686 0.316871 0.123161 0.235701
H75   H     H_    0.004375 0.403504 0.437223 0.167873
H76   H     H_    0.719846 0.721547 0.406755 0.139342
N1    N     N_3   0.965754 0.393469 0.566628 -0.593373
N2    N     N_3   0.124985 0.944943 0.916275 -0.636247
N3    N     N_3   0.362025 0.337608 0.098058 -0.642018
N4    N     N_3   0.624983 0.444960 0.916276 -0.636251
N5    N     N_3   0.580588 0.864780 0.911699 -0.580092
N6    N     N_3   0.402105 0.756563 0.080447 -0.556901
N7    N     N_3   0.080602 0.364766 0.911692 -0.580233
N8    N     N_3   0.902096 0.256524 0.080435 -0.556964
N9    N     N_3   0.113212 0.391145 0.454583 -0.595757
N10   N     N_3   0.465760 0.893472 0.566632 -0.593367
N11   N     N_3   0.613211 0.891153 0.454578 -0.595756
N12   N     N_3   0.892943 0.137411 0.448085 -0.654860
N13   N     N_3   0.066714 0.995584 0.593805 -0.591285
N14   N     N_3   0.392919 0.637443 0.448102 -0.654873
N15   N     N_3   0.566706 0.495522 0.593802 -0.591300
N16   N     N_3   0.862029 0.837635 0.098057 -0.641991
O1    O     O_R   0.787520 0.042810 0.170440 -0.549149
O2    O     O_R   0.454050 0.051210 0.669140 -0.478832
O3    O     O_R   0.045950 0.551210 0.330860 -0.513355
O4    O     O_R   0.954050 0.551210 0.669140 -0.478822
O5    O     O_R   0.681390 0.959480 0.325510 -0.471125
O6    O     O_R   0.318610 0.959480 0.674490 -0.500300
O7    O     O_R   0.181390 0.459480 0.325510 -0.471133
O8    O     O_R   0.818610 0.459480 0.674490 -0.500296
O9    O     O_3   0.667900 0.167900 0.250060 -0.289707
O10   O     O_3   0.332100 0.167900 0.749940 -0.303322
O11   O     O_3   0.167900 0.667900 0.250060 -0.289712
O12   O     O_R   0.212480 0.042810 0.829560 -0.538813
O13   O     O_3   0.832100 0.667900 0.749940 -0.303321
O14   O     O_R   0.765640 0.292100 0.175020 -0.510541
O15   O     O_R   0.234360 0.292100 0.824980 -0.521842
O16   O     O_R   0.265640 0.792100 0.175020 -0.510546
O17   O     O_R   0.734360 0.792100 0.824980 -0.521859
O18   O     O_R   0.670190 0.408840 0.168540 -0.503311
O19   O     O_R   0.329810 0.408840 0.831460 -0.479251
O20   O     O_R   0.170190 0.908840 0.168540 -0.503308
O21   O     O_R   0.829810 0.908840 0.831460 -0.479239
O22   O     O_R   0.556620 0.251410 0.175160 -0.528841
O23   O     O_R   0.287520 0.542810 0.170440 -0.549148
O24   O     O_R   0.443380 0.251410 0.824840 -0.540279
O25   O     O_R   0.056620 0.751410 0.175160 -0.528848
O26   O     O_R   0.943380 0.751410 0.824840 -0.540296
O27   O     O_R   0.545960 0.049620 0.170320 -0.472199
O28   O     O_R   0.454040 0.049620 0.829680 -0.496499
O29   O     O_R   0.045960 0.549620 0.170320 -0.472168
O30   O     O_R   0.954040 0.549620 0.829680 -0.496458
O31   O     O_R   0.681390 0.958010 0.176690 -0.457195
O32   O     O_R   0.318610 0.958010 0.823310 -0.469606
O33   O     O_R   0.181390 0.458010 0.176690 -0.457169
O34   O     O_R   0.712480 0.542810 0.829560 -0.538806
O35   O     O_R   0.818610 0.458010 0.823310 -0.469614
O36   O     O_R   0.787510 0.044390 0.330970 -0.525616
O37   O     O_R   0.212490 0.044390 0.669030 -0.508668
O38   O     O_R   0.287510 0.544390 0.330970 -0.525607
O39   O     O_R   0.712490 0.544390 0.669030 -0.508679
O40   O     O_R   0.765630 0.293570 0.323840 -0.507996
O41   O     O_R   0.234370 0.293570 0.676160 -0.511808
O42   O     O_R   0.265630 0.793570 0.323840 -0.508003
O43   O     O_R   0.734370 0.793570 0.676160 -0.511801
O44   O     O_R   0.670190 0.410420 0.329080 -0.505620
O45   O     O_R   0.556610 0.252880 0.323980 -0.475573
O46   O     O_R   0.329810 0.410420 0.670920 -0.478994
O47   O     O_R   0.170190 0.910420 0.329080 -0.505615
O48   O     O_R   0.829810 0.910420 0.670920 -0.479009
O49   O     O_R   0.443390 0.252880 0.676020 -0.462616
O50   O     O_R   0.056610 0.752880 0.323980 -0.475560
O51   O     O_R   0.943390 0.752880 0.676020 -0.462616
O52   O     O_R   0.545950 0.051210 0.330860 -0.513347

loop_
_geom_bond_atom_site_label_1
_geom_bond_atom_site_label_2
_ccdc_geom_bond_type
Cr9   O24   S    
C57   F9    S    
C35   C53   S    
C65   O22   A    
C74   C83   S    
C90   C95   A    
C18   C65   S    
C120  H20   S    
Cr12  O27   S    
Cr2   O32   S    
C87   C91   A    
C85   H67   S    
C67   O25   A    
C95   C99   A    
C19   C29   A    
Cr2   O6    S    
C13   C70   A    
C12   O5    A    
C94   C111  S    
C5    O46   A    
C89   C94   A    
H52   N13   S    
C7    O48   A    
C91   C96   A    
C38   C55   S    
Cr6   O23   S    
C102  H3    S    
C99   C121  S    
C84   H56   S    
C21   C22   A    
C6    O42   A    
H46   N10   S    
H49   N12   S    
C109  C118  S    
C16   O8    A    
C39   C61   A    
C86   N9    S    
C84   N11   S    
C29   H34   S    
C11   C72   S    
Cr8   O18   S    
C20   C28   A    
C121  N15   S    
C17   C21   A    
Cr9   O49   S    
C19   C23   A    
C39   C56   S    
C26   C27   A    
C69   C74   A    
H59   N16   S    
C80   F6    S    
C31   C48   S    
C24   H30   S    
Cr4   O4    S    
C33   C51   A    
H61   N2    S    
C41   C63   A    
C42   C64   A    
C7    O43   A    
C1    O14   A    
C43   C61   A    
C1    O18   A    
C48   O20   A    
C8    C71   S    
C115  O32   A    
Cr4   O30   S    
C55   N8    S    
C15   O38   A    
C10   O3    A    
C37   O19   A    
Cr7   O13   S    
C98   C120  S    
H48   N11   S    
C51   H35   S    
C33   C38   A    
C95   C112  S    
C104  H4    S    
Cr1   O9    S    
C6    O47   A    
C26   H1    S    
H65   N4    S    
C2    C114  A    
C45   C50   A    
C112  H17   S    
C31   C35   A    
C118  H18   S    
C35   C40   A    
Cr9   O46   S    
C73   C77   A    
H66   N5    S    
C43   C47   A    
C76   C85   S    
C107  H7    S    
C105  H5    S    
C83   H45   S    
C117  O35   A    
C109  H9    S    
Cr7   O43   S    
C10   O50   A    
Cr6   O11   S    
C98   C124  A    
C32   C36   A    
C41   C58   S    
C52   N5    S    
C6    C88   S    
C45   N3    S    
H60   N2    S    
Cr8   O45   S    
Cr2   O2    S    
H55   N15   S    
C53   N6    S    
Cr10  O25   S    
H74   N8    S    
Cr2   O28   S    
C52   H38   S    
Cr3   O33   S    
Cr8   O9    S    
C71   C75   A    
C15   C124  S    
C30   C34   A    
C34   C39   A    
C17   C27   A    
Cr3   O3    S    
C80   C82   A    
C46   C51   A    
C103  H26   S    
H64   N4    S    
C97   C119  S    
C24   C81   A    
Cr4   O35   S    
H69   N6    S    
C83   C84   S    
C87   C105  A    
Cr9   O19   S    
C30   C59   S    
H68   N5    S    
C102  C107  A    
H42   N9    S    
C32   C37   S    
C60   F4    S    
C69   C79   A    
C85   N1    S    
C86   H75   S    
C78   F1    S    
C93   C97   A    
Cr8   O22   S    
C101  C106  A    
H72   N7    S    
C18   C22   A    
C68   O26   A    
C59   O21   A    
C111  H16   S    
C113  O31   A    
H71   N7    S    
C110  C119  S    
H54   N14   S    
H44   N10   S    
Cr1   O40   S    
C93   C110  S    
C90   C108  A    
C62   C115  S    
C97   C123  A    
C79   F5    S    
H73   N8    S    
C4    O44   A    
Cr1   O14   S    
C5    C89   S    
C36   C54   S    
C3    C99   A    
Cr3   O29   S    
C23   C92   A    
Cr11  O48   S    
C44   N2    S    
C3    C16   S    
C120  N14   S    
C44   C49   A    
C18   C26   A    
Cr6   O38   S    
H53   N14   S    
C112  H13   S    
C17   C66   S    
C28   C29   A    
C9    C69   S    
C109  H14   S    
C8    O52   A    
C10   C73   S    
C66   O24   A    
C20   C25   A    
C94   C98   A    
C101  H2    S    
C111  H11   S    
H70   N6    S    
C7    C87   S    
Cr5   O15   S    
C106  H6    S    
Cr11  O26   S    
Cr7   O39   S    
C110  H10   S    
C11   O51   A    
C55   C60   S    
H47   N11   S    
C36   C41   A    
Cr10  O11   S    
C31   C49   A    
C102  C124  A    
H51   N13   S    
C4    C90   S    
C22   C81   A    
Cr7   O34   S    
Cr12  O52   S    
C53   C57   S    
C119  N13   S    
C85   C86   S    
C64   C117  S    
C108  H8    S    
C89   C107  A    
Cr10  O47   S    
C8    O45   A    
C14   O37   A    
C114  H27   S    
Cr8   O44   S    
C15   O7    A    
C54   H36   S    
Cr12  O9    S    
Cr3   O7    S    
C65   O27   A    
C104  C108  A    
C66   O28   A    
Cr5   O10   S    
C40   C57   S    
Cr10  O50   S    
C117  O34   A    
C110  H15   S    
H43   N9    S    
C34   C52   S    
C96   C122  A    
Cr2   O10   S    
C70   H22   S    
C116  O23   A    
H50   N12   S    
C2    C103  A    
C13   H29   S    
Cr12  O31   S    
C75   C84   S    
C43   N16   S    
C56   F8    S    
C118  N12   S    
C112  C121  S    
C12   C122  S    
C46   N4    S    
C59   O17   A    
Cr1   O36   S    
C58   F3    S    
C121  H21   S    
H62   N3    S    
C20   C67   S    
C72   C76   A    
C12   O36   A    
C1    C33   S    
C100  C105  A    
C101  C123  A    
C5    O41   A    
C96   C118  S    
C38   C42   A    
C16   O39   A    
C100  H76   S    
C40   C62   A    
C81   H24   S    
H57   N15   S    
C47   H31   S    
C2    H28   S    
Cr5   O37   S    
Cr7   O17   S    
C37   O15   A    
Cr12  O5    S    
Cr1   O1    S    
C60   F11   S    
C48   O16   A    
Cr3   O11   S    
C49   H32   S    
C23   C25   A    
Cr5   O12   S    
H63   N3    S    
C11   O4    A    
C116  O33   A    
C3    C104  A    
C9    O2    A    
C74   C75   A    
Cr4   O8    S    
C30   C47   A    
C19   C68   S    
C76   C77   A    
H40   N1    S    
C42   C60   S    
C78   C79   A    
C25   C103  A    
C115  O12   A    
C44   C62   A    
C27   H12   S    
C45   C63   A    
C13   C24   A    
C46   C64   A    
C111  C120  S    
C56   F12   S    
C68   O30   A    
C88   C106  A    
C28   H23   S    
C83   N10   S    
Cr4   O13   S    
Cr11  O13   S    
Cr5   O41   S    
C32   C50   A    
C77   C86   S    
Cr11  O21   S    
C113  O1    A    
C61   C113  S    
C50   H33   S    
C63   C116  S    
C54   N7    S    
C54   C58   S    
C88   C93   A    
C67   O29   A    
C14   C123  S    
H41   N1    S    
C82   F7    S    
C58   F10   S    
C92   H25   S    
C21   C70   A    
C91   C109  S    
C53   H39   S    
Cr6   O42   S    
C9    O49   A    
Cr11  O51   S    
C4    O40   A    
C73   C80   A    
C57   F2    S    
C119  H19   S    
C100  C122  A    
C55   H37   S    
Cr10  O20   S    
H58   N16   S    
C92   C114  A    
Cr9   O10   S    
C71   C78   A    
C72   C82   A    
C52   C56   S    
C14   O6    A    
Cr6   O16   S    
