data_str_m2_o14_o16_f0_pcu.sym.140
_audit_creation_date              2012-12-10T17:18:53-0500
_audit_creation_method            fapswitch 2.2
_symmetry_space_group_name_H-M    P1
_symmetry_Int_Tables_number       1
_space_group_crystal_system       triclinic
_cell_length_a                    9.606437
_cell_length_b                    10.909071
_cell_length_c                    13.609488
_cell_angle_alpha                 95.930964
_cell_angle_beta                  73.774941
_cell_angle_gamma                 90.587846
_cell_volume                      1361.84374926

loop_
_atom_site_label
_atom_site_type_symbol
_atom_type_description
_atom_site_fract_x
_atom_site_fract_y
_atom_site_fract_z
_atom_type_partial_charge
C1    C     C_R   0.498102 0.738233 0.509394 0.894120
C2    C     C_R   0.462084 0.550203 0.970027 0.082733
C3    C     C_R   0.489098 0.497757 0.867077 -0.053537
C4    C     C_R   0.561267 0.523581 0.025588 -0.032059
C5    C     C_R   0.705268 0.485522 0.972055 -0.070954
C6    C     C_R   0.736276 0.443566 0.866411 0.278079
C7    C     C_R   0.621932 0.433441 0.820904 -0.213640
C8    C     C_R   0.514173 0.515633 0.132295 0.228099
C9    C     C_R   0.766481 0.521672 0.134666 0.285480
C10   C     C_R   0.385022 0.514987 0.812542 -0.078280
C11   C     C_R   0.249068 0.893350 0.646707 0.385771
C12   C     C_R   0.423881 0.498151 0.699177 0.789285
C13   C     C_R   0.110205 0.943273 0.661794 -0.176835
C14   C     C_R   0.093394 0.046873 0.614525 -0.229646
C15   C     C_R   0.215394 0.111688 0.566265 -0.142147
C16   C     C_R   0.356950 0.063062 0.551723 0.002991
C17   C     C_R   0.366087 0.940183 0.572841 -0.032305
C18   C     C_R   0.496961 0.873903 0.529859 -0.224279
C19   C     C_R   0.626781 0.939228 0.513628 0.386395
C20   C     C_R   0.619803 0.068330 0.524488 0.253687
C21   C     C_R   0.488987 0.130305 0.525847 -0.255854
C22   C     C_R   0.912894 0.298378 0.376284 0.329331
C23   C     C_R   0.495419 0.263186 0.509034 0.798965
C24   C     C_R   0.010186 0.194487 0.342995 0.285228
C25   C     C_R   0.152940 0.209163 0.342333 -0.357266
C26   C     C_R   0.197549 0.318857 0.379780 -0.181476
C27   C     C_R   0.099608 0.409293 0.439637 0.054204
C28   C     C_R   0.950026 0.404386 0.439613 0.001412
C29   C     C_R   0.901561 0.585241 0.560461 0.419228
C30   C     C_R   0.049794 0.580938 0.564040 0.404105
C31   C     C_R   0.576176 0.506896 0.301199 0.844006
C32   C     C_R   0.809655 0.483706 0.028102 0.145534
C33   C     C_R   0.618441 0.516246 0.188691 -0.194607
C34   C     C_R   0.253030 0.575211 0.864306 -0.210644
C35   C     C_R   0.232370 0.635543 0.962266 -0.335561
C36   C     C_R   0.338649 0.628829 0.014182 0.480342
Cu1   Cu    Cu3+1 0.359340 0.500010 0.500010 0.975257
Cu2   Cu    Cu3+1 0.640660 0.499990 0.499990 1.042855
H1    H     H_    0.016212 0.905177 0.712795 0.120173
H2    H     H_    0.985816 0.082669 0.622836 0.173629
H3    H     H_    0.192821 0.198293 0.543444 0.195867
H4    H     H_    0.234058 0.138937 0.303196 0.181792
H5    H     H_    0.311634 0.327641 0.360459 0.231690
H6    H     H_    0.170964 0.586869 0.825266 0.187581
H7    H     H_    0.135238 0.691829 0.996053 0.133540
H8    H     H_    0.640258 0.378806 0.747858 0.169056
N1    N     N_R   0.852480 0.498790 0.499000 -0.205068
N2    N     N_R   0.148360 0.498710 0.498970 -0.206424
O1    O     O_R   0.381190 0.680360 0.500010 -0.542481
O2    O     O_R   0.618760 0.680340 0.500000 -0.479662
O3    O     O_R   0.323240 0.499990 0.650990 -0.538143
O4    O     O_R   0.560820 0.499960 0.650980 -0.570676
O5    O     O_R   0.381240 0.319660 0.500000 -0.628489
O6    O     O_R   0.618810 0.319640 0.499990 -0.540837
O7    O     O_R   0.439180 0.500040 0.349020 -0.630657
O8    O     O_R   0.676760 0.500010 0.349010 -0.492068
O9    O     O_3   0.866721 0.554148 0.187833 -0.727932
H9    H     H_    0.949600 0.592991 0.141485 0.312158
N3    N     N_2   0.273302 0.810777 0.715656 -0.402174
H10   H     H_    0.180225 0.784895 0.767582 0.252962
C37   C     C_3   0.387603 0.841845 0.764520 -0.698888
H11   H     H_    0.344969 0.842650 0.849333 0.224913
H12   H     H_    0.476422 0.771685 0.736443 0.260119
H13   H     H_    0.432589 0.934470 0.749132 0.215743
O10   O     O_3   0.741960 0.130909 0.532430 -0.749193
H14   H     H_    0.711457 0.189477 0.595643 0.319303
O11   O     O_3   0.803908 0.673628 0.620023 -0.688518
H15   H     H_    0.857465 0.748518 0.633680 0.310249
N4    N     N_2   0.821400 0.314226 0.312533 -0.368218
H16   H     H_    0.876467 0.354295 0.247973 0.267350
C38   C     C_3   0.726402 0.217757 0.288697 -0.609974
H17   H     H_    0.617626 0.257621 0.297077 0.193661
H18   H     H_    0.713820 0.143676 0.339763 0.265099
H19   H     H_    0.768407 0.177110 0.207562 0.177466
N5    N     N_2   0.975802 0.087105 0.285704 -0.422801
H20   H     H_    0.991750 0.097337 0.208865 0.238161
C39   C     C_3   0.029758 0.969340 0.301787 -0.628349
H21   H     H_    0.951707 0.896626 0.291922 0.255486
H22   H     H_    0.043941 0.970963 0.380165 0.246038
H23   H     H_    0.135878 0.945942 0.244379 0.200284
N6    N     N_2   0.882030 0.417094 0.806298 -0.385561
H24   H     H_    0.946074 0.493483 0.794354 0.259043
C40   C     C_3   0.911176 0.321903 0.721051 -0.699284
H25   H     H_    0.028961 0.300161 0.696481 0.242910
H26   H     H_    0.880499 0.353934 0.655164 0.213896
H27   H     H_    0.851205 0.237512 0.745183 0.219719
O12   O     O_3   0.095292 0.653714 0.636695 -0.721217
H28   H     H_    0.011767 0.671238 0.698481 0.271513
N7    N     N_2   0.949503 0.427637 0.982328 -0.404424
H29   H     H_    0.032234 0.466890 0.007825 0.262437
C41   C     C_3   0.952707 0.295122 0.983198 -0.633471
H30   H     H_    0.060526 0.257649 0.936229 0.224825
H31   H     H_    0.868696 0.251300 0.950056 0.242729
H32   H     H_    0.934366 0.271216 0.063090 0.196299
N8    N     N_2   0.364577 0.491600 0.177058 -0.384476
H33   H     H_    0.304202 0.543140 0.242479 0.305297
C42   C     C_3   0.311587 0.373273 0.146057 -0.687245
H34   H     H_    0.192776 0.369701 0.181446 0.230725
H35   H     H_    0.367546 0.298059 0.170047 0.216465
H36   H     H_    0.331013 0.358689 0.061431 0.226824
O13   O     O_3   0.328461 0.703714 0.104408 -0.748177
H37   H     H_    0.236015 0.751840 0.124249 0.311111
O14   O     O_3   0.757184 0.875599 0.493615 -0.697165
H38   H     H_    0.834673 0.932544 0.501826 0.357439

loop_
_geom_bond_atom_site_label_1
_geom_bond_atom_site_label_2
_ccdc_geom_bond_type
C27   N2    A    
O12   H28   S    
C28   N1    A    
O13   H37   S    
N8    H33   S    
C4    C8    A    
C42   H36   S    
C42   H34   S    
C39   H21   S    
C26   C27   A    
C16   C21   A    
C29   N1    A    
C30   N2    A    
Cu1   Cu2   S    
C18   C19   A    
C3    C7    A    
C5    C6    A    
Cu1   O3    S    
Cu2   O4    S    
C15   C16   A    
N4    C38   S    
C34   C35   A    
C37   H12   S    
C9    C32   A    
C12   O4    A    
C29   O11   S    
C19   O14   S    
C40   H25   S    
C16   C17   A    
C31   C33   S    
C31   O8    A    
N7    C41   S    
C1    O2    A    
C22   N4    S    
C5    C32   A    
Cu1   O5    S    
N3    H10   S    
C6    N6    S    
C22   C28   A    
C13   C14   A    
C9    C33   A    
N4    H16   S    
C8    N8    S    
C11   N3    S    
C42   H35   S    
C26   H5    S    
C23   O5    A    
C39   H22   S    
N3    C37   S    
O11   H15   S    
C7    H8    S    
C20   O10   S    
C34   H6    S    
C24   C25   A    
C15   H3    S    
C41   H30   S    
C38   H18   S    
C25   C26   A    
N6    H24   S    
C36   O13   S    
C35   C36   A    
C37   H13   S    
C2    C4    A    
N5    H20   S    
C29   C30   A    
C41   H31   S    
Cu1   O1    S    
C32   N7    S    
Cu2   O6    S    
C17   C18   A    
C1    C18   S    
C10   C34   A    
Cu1   N2    S    
N5    C39   S    
Cu2   N1    S    
C10   C12   S    
C40   H26   S    
C21   C23   S    
C22   C24   A    
C35   H7    S    
O14   H38   S    
C12   O3    A    
C23   O6    A    
C39   H23   S    
C2    C36   A    
C11   C17   A    
C4    C5    A    
C25   H4    S    
N6    C40   S    
C38   H19   S    
N8    C42   S    
C24   N5    S    
C6    C7    A    
Cu2   O2    S    
C19   C20   A    
C2    C3    A    
N7    H29   S    
C38   H17   S    
C3    C10   A    
C41   H32   S    
C11   C13   A    
O9    H9    S    
C9    O9    S    
C8    C33   A    
C37   H11   S    
C13   H1    S    
C14   H2    S    
Cu1   O7    S    
C40   H27   S    
Cu2   O8    S    
C20   C21   A    
O10   H14   S    
C27   C28   A    
C14   C15   A    
C31   O7    A    
C30   O12   S    
C1    O1    A    
