data_str_m2_o14_o14_f0_pcu.sym.156
_audit_creation_date              2012-12-10T17:17:52-0500
_audit_creation_method            fapswitch 2.2
_symmetry_space_group_name_H-M    P1
_symmetry_Int_Tables_number       1
_space_group_crystal_system       triclinic
_cell_length_a                    14.957156
_cell_length_b                    15.629947
_cell_length_c                    9.585187
_cell_angle_alpha                 89.772028
_cell_angle_beta                  89.732137
_cell_angle_gamma                 89.560027
_cell_volume                      2240.71278305

loop_
_atom_site_label
_atom_site_type_symbol
_atom_type_description
_atom_site_fract_x
_atom_site_fract_y
_atom_site_fract_z
_atom_type_partial_charge
C1    C     C_R   0.384997 0.877547 0.501595 0.780030
C2    C     C_R   0.379086 0.116517 0.500112 0.788469
C3    C     C_R   0.884997 0.377547 0.501595 0.780030
C4    C     C_R   0.879086 0.616517 0.500112 0.788469
C5    C     C_R   0.321481 0.254029 0.422923 -0.201305
C6    C     C_R   0.288337 0.775960 0.380640 -0.198160
C7    C     C_R   0.821481 0.754029 0.422923 -0.201305
C8    C     C_R   0.788337 0.275960 0.380640 -0.198162
C9    C     C_R   0.757515 0.818054 0.423149 -0.207035
C10   C     C_R   0.719401 0.217708 0.379309 -0.201211
C11   C     C_R   0.257515 0.318053 0.423149 -0.207033
C12   C     C_R   0.219401 0.717708 0.379309 -0.201211
C13   C     C_R   0.678971 0.808420 0.500246 -0.089427
C14   C     C_R   0.676329 0.194710 0.503635 -0.121942
C15   C     C_R   0.178971 0.308419 0.500246 -0.089427
C16   C     C_R   0.176329 0.694709 0.503635 -0.121943
C17   C     C_R   0.664588 0.004235 0.142684 -0.163283
C18   C     C_R   0.164588 0.504236 0.142684 -0.163291
C19   C     C_R   0.745207 0.010542 0.070038 0.152503
C20   C     C_R   0.245207 0.510545 0.070038 0.152507
C21   C     C_R   0.744533 0.009789 0.925507 -0.232681
C22   C     C_R   0.244533 0.509791 0.925507 -0.232675
C23   C     C_R   0.664329 0.003503 0.854543 -0.165141
C24   C     C_R   0.164329 0.503503 0.854543 -0.165143
C25   C     C_R   0.580841 0.001882 0.924550 0.200266
C26   C     C_R   0.080841 0.501882 0.924550 0.200266
C27   C     C_R   0.580879 0.002017 0.074114 0.161635
C28   C     C_R   0.080879 0.502017 0.074114 0.161638
C29   C     C_R   0.423107 0.997880 0.074488 -0.056447
C30   C     C_R   0.923107 0.497880 0.074488 -0.056448
C31   C     C_R   0.613957 0.123076 0.500426 0.788108
C32   C     C_R   0.616568 0.879430 0.500069 0.774781
C33   C     C_R   0.113957 0.623076 0.500426 0.788108
C34   C     C_R   0.116567 0.379430 0.500069 0.774781
C35   C     C_R   0.423142 0.997909 0.926501 -0.071196
C36   C     C_R   0.923142 0.497909 0.926501 -0.071197
C37   C     C_R   0.209021 0.088493 0.645144 -0.184487
C38   C     C_R   0.323907 0.789451 0.768285 -0.179485
C39   C     C_R   0.709021 0.588493 0.645143 -0.184487
C40   C     C_R   0.823907 0.289451 0.768285 -0.179485
C41   C     C_R   0.128145 0.076785 0.715353 -0.139545
C42   C     C_R   0.276122 0.774762 0.891100 -0.156872
C43   C     C_R   0.628145 0.576785 0.715352 -0.139546
C44   C     C_R   0.776122 0.274763 0.891100 -0.156875
C45   C     C_R   0.563558 0.641318 0.715087 -0.137498
C46   C     C_R   0.688173 0.247622 0.884638 -0.139297
C47   C     C_R   0.063558 0.141318 0.715088 -0.137498
C48   C     C_R   0.188174 0.747621 0.884638 -0.139297
C49   C     C_R   0.579514 0.717969 0.644720 -0.171636
C50   C     C_R   0.651151 0.227027 0.756173 -0.156005
C51   C     C_R   0.079514 0.217969 0.644720 -0.171636
C52   C     C_R   0.151152 0.727026 0.756174 -0.156005
C53   C     C_R   0.661575 0.731897 0.574697 0.100542
C54   C     C_R   0.702465 0.232605 0.631609 0.094876
C55   C     C_R   0.161575 0.231897 0.574697 0.100541
C56   C     C_R   0.202465 0.732605 0.631609 0.094876
C57   C     C_R   0.227211 0.166250 0.574803 0.095798
C58   C     C_R   0.283980 0.777004 0.635729 0.096174
C59   C     C_R   0.727211 0.666250 0.574803 0.095798
C60   C     C_R   0.783979 0.277004 0.635729 0.096175
C61   C     C_R   0.307873 0.179422 0.500230 -0.099144
C62   C     C_R   0.321149 0.806873 0.507253 -0.122660
C63   C     C_R   0.807873 0.679422 0.500229 -0.099143
C64   C     C_R   0.821149 0.306873 0.507253 -0.122659
Cu1   Cu    Cu3+1 0.499990 0.000000 0.640660 0.915689
Cu2   Cu    Cu3+1 0.999990 0.500000 0.640660 0.915689
Cu3   Cu    Cu3+1 0.500010 0.000000 0.359340 0.932864
Cu4   Cu    Cu3+1 0.000010 0.500000 0.359340 0.932863
H1    H     H_    0.382948 0.263526 0.364679 0.147891
H2    H     H_    0.316723 0.795994 0.281691 0.161637
H3    H     H_    0.882949 0.763526 0.364680 0.147891
H4    H     H_    0.816723 0.295994 0.281691 0.161637
H5    H     H_    0.806575 0.012811 0.866930 0.145132
H6    H     H_    0.306575 0.512814 0.866929 0.145131
H7    H     H_    0.672273 0.999978 0.744769 0.212699
H8    H     H_    0.172273 0.499978 0.744769 0.212700
H9    H     H_    0.360157 0.996152 0.871597 0.140108
H10   H     H_    0.860158 0.496152 0.871597 0.140108
H11   H     H_    0.255912 0.035515 0.644558 0.144434
H12   H     H_    0.392918 0.807116 0.780527 0.164720
H13   H     H_    0.755912 0.535515 0.644558 0.144434
H14   H     H_    0.892917 0.307116 0.780527 0.164720
H15   H     H_    0.115095 0.016935 0.768647 0.135384
H16   H     H_    0.306873 0.786215 0.991282 0.134184
H17   H     H_    0.615094 0.516935 0.768647 0.135384
H18   H     H_    0.806872 0.286215 0.991282 0.134183
H19   H     H_    0.500351 0.631577 0.768130 0.132643
H20   H     H_    0.649315 0.240284 0.979465 0.135022
H21   H     H_    0.000351 0.131577 0.768130 0.132642
H22   H     H_    0.149316 0.740283 0.979465 0.135022
H23   H     H_    0.526392 0.765091 0.643656 0.138208
H24   H     H_    0.581728 0.208513 0.756138 0.164418
H25   H     H_    0.026391 0.265091 0.643657 0.138208
H26   H     H_    0.081729 0.708513 0.756139 0.164418
H27   H     H_    0.770135 0.876430 0.365539 0.139208
H28   H     H_    0.699697 0.190894 0.280116 0.172386
H29   H     H_    0.270135 0.376430 0.365538 0.139202
H30   H     H_    0.199697 0.690894 0.280116 0.172387
H31   H     H_    0.360088 0.996153 0.130221 0.137434
H32   H     H_    0.860089 0.496153 0.130221 0.137434
H33   H     H_    0.671787 0.001198 0.252571 0.209050
H34   H     H_    0.171787 0.501198 0.252570 0.209048
N1    N     N_R   0.501200 0.000000 0.147910 -0.192520
N2    N     N_R   0.001200 0.500000 0.147910 -0.192520
N3    N     N_R   0.501270 0.000000 0.852040 -0.198699
N4    N     N_R   0.001270 0.500000 0.852040 -0.198699
O1    O     O_R   0.409820 0.909830 0.618810 -0.603909
O2    O     O_R   0.409820 0.090170 0.618810 -0.583315
O3    O     O_R   0.909820 0.409830 0.618810 -0.603909
O4    O     O_R   0.909820 0.590170 0.618810 -0.583315
O5    O     O_R   0.409840 0.909830 0.381240 -0.577806
O6    O     O_R   0.409840 0.090170 0.381240 -0.572924
O7    O     O_R   0.909840 0.409830 0.381240 -0.577806
O8    O     O_R   0.909840 0.590170 0.381240 -0.572924
O9    O     O_R   0.590170 0.090170 0.618760 -0.606898
O10   O     O_R   0.590170 0.909830 0.618760 -0.602997
O11   O     O_R   0.090170 0.590170 0.618760 -0.606898
O12   O     O_R   0.090170 0.409830 0.618760 -0.602997
O13   O     O_R   0.590190 0.090180 0.381190 -0.600010
O14   O     O_R   0.590190 0.909820 0.381190 -0.589990
O15   O     O_R   0.090190 0.590180 0.381190 -0.600009
O16   O     O_R   0.090190 0.409820 0.381190 -0.589990
N5    N     N_3   0.827488 0.017381 0.145536 -0.598581
H35   H     H_    0.841571 0.957320 0.188622 0.206926
H36   H     H_    0.880194 0.031360 0.077283 0.218896
N6    N     N_3   0.327487 0.517386 0.145535 -0.598575
H37   H     H_    0.341566 0.457330 0.188641 0.206921
H38   H     H_    0.380196 0.531353 0.077279 0.218894

loop_
_geom_bond_atom_site_label_1
_geom_bond_atom_site_label_2
_ccdc_geom_bond_type
C34   O12   A    
Cu2   Cu4   S    
C58   C62   A    
N6    H37   S    
C40   C60   A    
C21   H5    S    
C47   H21   S    
C13   C32   S    
C14   C31   S    
C1    C62   S    
C26   N4    A    
C53   C59   A    
C25   N3    A    
N5    H35   S    
C54   C60   A    
C3    C64   S    
C33   O11   A    
C37   H11   S    
C4    C63   S    
C19   N5    S    
C50   C54   A    
C4    O8    A    
C45   H19   S    
Cu2   N4    S    
C38   C42   A    
C6    C12   A    
N5    H36   S    
C41   H15   S    
C30   H32   S    
C29   N1    A    
C18   C20   A    
C6    H2    S    
C18   H34   S    
Cu1   N3    S    
C9    C13   A    
C5    H1    S    
C38   C58   A    
C11   C15   A    
C12   C16   A    
Cu1   Cu3   S    
Cu2   O11   S    
C52   H26   S    
C10   H28   S    
Cu3   O14   S    
C9    H27   S    
C15   C34   S    
C46   H20   S    
C2    C61   S    
Cu4   O7    S    
C39   C59   A    
C34   O16   A    
C48   H22   S    
C33   O15   A    
Cu1   O9    S    
C49   H23   S    
C44   H18   S    
C31   O9    A    
C44   C46   A    
C46   C50   A    
C13   C53   A    
C8    H4    S    
C29   H31   S    
C36   N4    A    
C43   H17   S    
C40   H14   S    
C42   H16   S    
C39   H13   S    
C10   C14   A    
Cu4   O16   S    
C24   H8    S    
C39   C43   A    
Cu3   N1    S    
C35   H9    S    
C32   O10   A    
C60   C64   A    
C17   C27   A    
C16   C56   A    
C20   N6    S    
C35   N3    A    
C16   C33   S    
C28   N2    A    
C45   C49   A    
C2    O6    A    
C41   C47   A    
C18   C28   A    
C42   C48   A    
Cu2   O4    S    
C57   C61   A    
C43   C45   A    
C7    C63   A    
C8    C64   A    
Cu3   O5    S    
C14   C54   A    
C20   C22   A    
C21   C23   A    
C3    O7    A    
Cu1   O10   S    
C22   C24   A    
C22   H6    S    
C40   C44   A    
C50   H24   S    
C7    C9    A    
C4    O4    A    
N6    H38   S    
Cu1   O2    S    
C19   C21   A    
C26   C28   A    
C17   H33   S    
Cu4   N2    S    
C23   H7    S    
Cu4   O15   S    
C47   C51   A    
C5    C11   A    
C25   C27   A    
C29   C35   A    
C59   C63   A    
C51   H25   S    
C30   C36   A    
C11   H29   S    
C6    C62   A    
C55   C57   A    
C36   H10   S    
C1    O5    A    
C7    H3    S    
C24   C26   A    
Cu4   O8    S    
C38   H12   S    
C3    O3    A    
C49   C53   A    
C2    O2    A    
C17   C19   A    
C56   C58   A    
C51   C55   A    
C23   C25   A    
Cu2   O3    S    
C37   C41   A    
C1    O1    A    
C52   C56   A    
Cu3   O6    S    
C48   C52   A    
C32   O14   A    
C8    C10   A    
Cu2   O12   S    
C30   N2    A    
C12   H30   S    
C31   O13   A    
Cu3   O13   S    
C27   N1    A    
Cu1   O1    S    
C37   C57   A    
C5    C61   A    
C15   C55   A    
