data_str_m3_o14_o14_f0_pcu.sym.126
_audit_creation_date              2012-12-10T17:40:51-0500
_audit_creation_method            fapswitch 2.2
_symmetry_space_group_name_H-M    P1
_symmetry_Int_Tables_number       1
_space_group_crystal_system       triclinic
_cell_length_a                    14.94829
_cell_length_b                    15.686055
_cell_length_c                    9.991013
_cell_angle_alpha                 90.794342
_cell_angle_beta                  93.347322
_cell_angle_gamma                 90.517431
_cell_volume                      2338.35455325

loop_
_atom_site_label
_atom_site_type_symbol
_atom_type_description
_atom_site_fract_x
_atom_site_fract_y
_atom_site_fract_z
_atom_type_partial_charge
C1    C     C_R   0.387888 0.873913 0.497631 0.853160
C2    C     C_R   0.701527 0.230384 0.390703 -0.186505
C3    C     C_R   0.196634 0.264915 0.391358 -0.199181
C4    C     C_R   0.201558 0.730354 0.390685 -0.186472
C5    C     C_R   0.696642 0.823406 0.498032 -0.072075
C6    C     C_R   0.683557 0.192849 0.512915 -0.064920
C7    C     C_R   0.196641 0.323405 0.498032 -0.072085
C8    C     C_R   0.183570 0.692839 0.512907 -0.064911
C9    C     C_R   0.338846 0.953320 0.114041 0.215560
C10   C     C_R   0.838850 0.453315 0.114048 0.215592
C11   C     C_R   0.284527 0.900624 0.026411 -0.300613
C12   C     C_R   0.383695 0.123064 0.498417 0.870369
C13   C     C_R   0.784536 0.400609 0.026427 -0.300585
C14   C     C_R   0.278471 0.920779 0.890222 0.188801
C15   C     C_R   0.778474 0.420759 0.890236 0.188787
C16   C     C_R   0.338562 0.981352 0.845809 0.024997
C17   C     C_R   0.838562 0.481332 0.845812 0.024973
C18   C     C_R   0.420382 0.991750 0.920342 0.015273
C19   C     C_R   0.920382 0.491741 0.920343 0.015281
C20   C     C_R   0.419900 0.986239 0.063639 0.048315
C21   C     C_R   0.919902 0.486232 0.063639 0.048320
C22   C     C_R   0.577131 0.004329 0.080084 0.210476
C23   C     C_R   0.887885 0.373915 0.497632 0.853162
C24   C     C_R   0.077131 0.504350 0.080092 0.210498
C25   C     C_R   0.617556 0.123165 0.504186 0.874431
C26   C     C_R   0.623092 0.883204 0.500818 0.875610
C27   C     C_R   0.117560 0.623163 0.504185 0.874457
C28   C     C_R   0.123091 0.383202 0.500818 0.875620
C29   C     C_R   0.576502 0.003824 0.936891 -0.030998
C30   C     C_R   0.076503 0.503836 0.936895 -0.030961
C31   C     C_R   0.412648 0.273081 0.676478 0.072116
C32   C     C_R   0.393025 0.741355 0.711469 0.039156
C33   C     C_R   0.912657 0.773086 0.676458 0.072109
C34   C     C_R   0.883695 0.623063 0.498416 0.870366
C35   C     C_R   0.893022 0.241347 0.711454 0.039169
C36   C     C_R   0.409036 0.327418 0.787640 -0.198864
C37   C     C_R   0.372863 0.720792 0.841166 -0.198816
C38   C     C_R   0.909053 0.827426 0.787617 -0.198867
C39   C     C_R   0.872870 0.220769 0.841150 -0.198826
C40   C     C_R   0.858160 0.900259 0.770352 -0.206245
C41   C     C_R   0.784468 0.208560 0.870570 -0.186748
C42   C     C_R   0.358148 0.400253 0.770367 -0.206240
C43   C     C_R   0.284459 0.708587 0.870574 -0.186741
C44   C     C_R   0.796683 0.904436 0.659325 0.036583
C45   C     C_R   0.264489 0.206364 0.386268 -0.223211
C46   C     C_R   0.716590 0.204125 0.767785 0.061671
C47   C     C_R   0.296677 0.404432 0.659333 0.036579
C48   C     C_R   0.216588 0.704138 0.767781 0.061659
C49   C     C_R   0.771145 0.828381 0.590672 0.032049
C50   C     C_R   0.738286 0.214611 0.631381 0.046559
C51   C     C_R   0.271139 0.328377 0.590679 0.032060
C52   C     C_R   0.238293 0.714611 0.631377 0.046549
C53   C     C_R   0.333512 0.261458 0.594796 0.055981
C54   C     C_R   0.322942 0.750474 0.610985 0.041383
C55   C     C_R   0.833517 0.761461 0.594787 0.055975
C56   C     C_R   0.274237 0.783441 0.381564 -0.234133
C57   C     C_R   0.822933 0.250478 0.610984 0.041366
C58   C     C_R   0.325960 0.197302 0.494608 -0.088919
C59   C     C_R   0.332659 0.797339 0.493177 -0.110757
C60   C     C_R   0.825959 0.697300 0.494608 -0.088908
C61   C     C_R   0.832645 0.297348 0.493179 -0.110756
C62   C     C_3   0.117969 0.934767 0.847314 -0.804655
C63   C     C_3   0.617969 0.434739 0.847349 -0.804657
C64   C     C_1   0.294608 0.057491 0.798378 0.213020
C65   C     C_1   0.794603 0.557459 0.798351 0.213049
C66   C     C_1   0.659239 0.013435 0.876831 0.245926
C67   C     C_R   0.764478 0.706354 0.386279 -0.223224
C68   C     C_1   0.159238 0.513446 0.876830 0.246016
C69   C     C_1   0.489637 0.290797 0.601347 0.122567
C70   C     C_1   0.485429 0.736450 0.679231 0.166999
C71   C     C_1   0.989644 0.790794 0.601317 0.122573
C72   C     C_1   0.985418 0.236428 0.679188 0.167001
C73   C     C_1   0.797234 0.981852 0.583640 0.172885
C74   C     C_1   0.627104 0.200298 0.813053 0.208630
C75   C     C_1   0.297236 0.481845 0.583641 0.172864
C76   C     C_1   0.127100 0.700306 0.813039 0.208595
C77   C     C_3   0.719943 0.069993 0.160453 -0.748197
C78   C     C_R   0.774208 0.283467 0.381578 -0.234092
C79   C     C_3   0.220006 0.569971 0.160356 -0.748416
C80   C     C_3   0.212108 0.039978 0.168323 -0.852088
C81   C     C_3   0.712101 0.539975 0.168290 -0.852118
C82   C     C_R   0.696626 0.764908 0.391369 -0.199125
H1    H     H_    0.269826 0.168578 0.297664 0.196682
H2    H     H_    0.769274 0.200786 0.974208 0.137684
H3    H     H_    0.378487 0.456681 0.828481 0.167343
H4    H     H_    0.269261 0.700830 0.974211 0.137676
H5    H     H_    0.645040 0.765360 0.310526 0.161960
H6    H     H_    0.657544 0.220541 0.301885 0.167367
H7    H     H_    0.145055 0.265373 0.310506 0.161953
H8    H     H_    0.157591 0.720493 0.301853 0.167412
H9    H     H_    0.230296 0.864251 0.065806 0.159252
H10   H     H_    0.730307 0.364236 0.065828 0.159249
H11   H     H_    0.209355 0.903663 0.706431 0.239931
H12   H     H_    0.283422 0.814586 0.287730 0.152809
H13   H     H_    0.065172 0.925033 0.766016 0.252118
H14   H     H_    0.125733 0.004556 0.864940 0.248483
H15   H     H_    0.096268 0.904153 0.939566 0.234223
H16   H     H_    0.709348 0.403638 0.706453 0.239933
H17   H     H_    0.565171 0.425014 0.766049 0.252121
H18   H     H_    0.625734 0.504526 0.864995 0.248478
H19   H     H_    0.596268 0.404112 0.939591 0.234224
H20   H     H_    0.690281 0.939875 0.149397 0.215740
H21   H     H_    0.750019 0.080164 0.263333 0.269500
H22   H     H_    0.684657 0.128716 0.127446 0.220219
H23   H     H_    0.769806 0.668559 0.297683 0.196691
H24   H     H_    0.775565 0.057112 0.094339 0.218163
H25   H     H_    0.190203 0.439842 0.149697 0.215802
H26   H     H_    0.250103 0.580186 0.263217 0.269467
H27   H     H_    0.184770 0.628703 0.127281 0.220220
H28   H     H_    0.275604 0.556982 0.094249 0.218278
H29   H     H_    0.276200 0.957475 0.291593 0.243813
H30   H     H_    0.176820 0.066343 0.254086 0.237091
H31   H     H_    0.162946 0.994838 0.118566 0.242743
H32   H     H_    0.228032 0.091285 0.097654 0.255770
H33   H     H_    0.776209 0.457506 0.291608 0.243819
H34   H     H_    0.783384 0.314622 0.287750 0.152802
H35   H     H_    0.676802 0.566341 0.254041 0.237075
H36   H     H_    0.662947 0.494824 0.118540 0.242754
H37   H     H_    0.728020 0.591278 0.097613 0.255785
H38   H     H_    0.463446 0.329715 0.863484 0.164562
H39   H     H_    0.425335 0.715806 0.920171 0.145952
H40   H     H_    0.963467 0.829727 0.863453 0.164568
H41   H     H_    0.925348 0.215768 0.920143 0.145951
H42   H     H_    0.878500 0.956688 0.828464 0.167350
N1    N     N_R   0.498810 0.000000 0.142780 -0.129027
N2    N     N_1   0.227618 0.524807 0.833287 -0.241049
N3    N     N_1   0.548729 0.310874 0.539039 -0.229621
N4    N     N_1   0.559725 0.729492 0.655275 -0.195582
N5    N     N_1   0.048736 0.810864 0.539001 -0.229621
N6    N     N_1   0.059703 0.229453 0.655199 -0.195600
N7    N     N_1   0.801229 0.042772 0.520696 -0.229034
N8    N     N_1   0.556663 0.195553 0.854408 -0.224687
N9    N     N_1   0.301235 0.542761 0.520688 -0.229003
N10   N     N_1   0.056658 0.695555 0.854389 -0.224667
N11   N     N_2   0.659022 0.997772 0.159340 -0.251071
N12   N     N_R   0.998810 0.500000 0.142780 -0.129077
N13   N     N_2   0.159011 0.497812 0.159378 -0.251034
N14   N     N_2   0.293636 0.997081 0.216355 -0.241852
N15   N     N_2   0.793634 0.497093 0.216340 -0.241877
N16   N     N_R   0.498740 0.000000 0.857170 -0.134859
N17   N     N_R   0.998740 0.500000 0.857170 -0.134876
N18   N     N_2   0.200839 0.897638 0.807663 -0.289499
N19   N     N_2   0.700839 0.397615 0.807687 -0.289501
N20   N     N_1   0.257081 0.118212 0.763574 -0.199256
N21   N     N_1   0.757071 0.618172 0.763523 -0.199252
N22   N     N_1   0.727623 0.024796 0.833301 -0.241044
O1    O     O_R   0.408390 0.908380 0.614690 -0.622317
O2    O     O_R   0.591620 0.908390 0.614640 -0.607650
O3    O     O_R   0.091620 0.591610 0.614640 -0.622569
O4    O     O_R   0.091620 0.408390 0.614640 -0.607646
O5    O     O_R   0.591610 0.091610 0.385310 -0.593446
O6    O     O_R   0.591610 0.908390 0.385310 -0.619432
O7    O     O_R   0.091610 0.591610 0.385310 -0.593415
O8    O     O_R   0.091610 0.408390 0.385310 -0.619534
O9    O     O_R   0.408390 0.091620 0.614690 -0.613112
O10   O     O_R   0.908390 0.408380 0.614690 -0.622318
O11   O     O_R   0.908390 0.591620 0.614690 -0.613105
O12   O     O_R   0.408370 0.908380 0.385360 -0.635864
O13   O     O_R   0.408370 0.091620 0.385360 -0.599449
O14   O     O_R   0.908370 0.408380 0.385360 -0.635870
O15   O     O_R   0.908370 0.591620 0.385360 -0.599455
O16   O     O_R   0.591620 0.091610 0.614640 -0.622563
Zn1   Zn    Zn3+2 0.500010 0.000000 0.653130 0.983221
Zn2   Zn    Zn3+2 0.000010 0.500000 0.653130 0.983218
Zn3   Zn    Zn3+2 0.499980 0.000000 0.346870 0.979095
Zn4   Zn    Zn3+2 0.999980 0.500000 0.346870 0.979063

loop_
_geom_bond_atom_site_label_1
_geom_bond_atom_site_label_2
_ccdc_geom_bond_type
C44   C49   A    
C33   C55   A    
C28   O8    A    
C73   N7    T    
C28   O4    A    
C22   C29   A    
C62   H14   S    
H16   N19   S    
C48   C76   S    
C36   C42   A    
C4    C8    A    
C34   O15   A    
C14   N18   S    
O6    Zn3   S    
C39   C41   A    
C45   H1    S    
N16   Zn1   S    
C56   H12   S    
C30   N17   A    
C1    O12   A    
C19   C21   A    
C74   N8    T    
H29   N14   S    
C3    C7    A    
C1    C59   S    
C35   C39   A    
O7    Zn4   S    
C11   C14   A    
C6    C25   S    
C82   H5    S    
C81   H35   S    
C39   H41   S    
C29   C66   S    
C15   C17   A    
C57   C61   A    
H20   N11   S    
C63   H17   S    
C60   C67   A    
C41   C46   A    
C2    H6    S    
C14   C16   A    
O14   Zn4   S    
C43   C48   A    
C8    C52   A    
C21   N12   A    
O15   Zn4   S    
C63   H19   S    
C12   C58   S    
C24   N12   A    
C19   N17   A    
C62   H13   S    
C4    C56   A    
C34   C60   S    
O2    Zn1   S    
C5    C49   A    
C2    C6    A    
C62   N18   S    
C32   C54   A    
C52   C54   A    
C4    H8    S    
C54   C59   A    
C10   C21   A    
C40   H42   S    
C45   C58   A    
C66   N22   T    
C79   H27   S    
O3    Zn2   S    
C76   N10   T    
C67   H23   S    
C22   N1    A    
C47   C51   A    
C64   N20   T    
O9    Zn1   S    
C49   C55   A    
C41   H2    S    
C81   H36   S    
C3    C45   A    
C6    C50   A    
C7    C28   S    
O13   Zn3   S    
C51   C53   A    
H25   N13   S    
N1    Zn3   S    
C63   H18   S    
C2    C78   A    
C71   N5    T    
C62   H15   S    
C9    N14   S    
C9    C20   A    
C27   O7    A    
C48   C52   A    
C25   O16   A    
C23   O14   A    
C80   H30   S    
C42   H3    S    
C32   C37   A    
C31   C53   A    
C18   N16   A    
C9    C11   A    
O11   Zn2   S    
C69   N3    T    
C38   H40   S    
N17   Zn2   S    
C37   H39   S    
C16   C18   A    
C79   N13   S    
H33   N15   S    
C35   C72   S    
C26   O2    A    
C13   C15   A    
C13   H10   S    
C15   N19   S    
C37   C43   A    
C77   H21   S    
C10   N15   S    
C12   O9    A    
C65   N21   T    
C68   N2    T    
C46   C74   S    
C77   N11   S    
O16   Zn1   S    
C23   C61   S    
C70   N4    T    
C81   N15   S    
C29   N16   A    
C46   C50   A    
C77   H24   S    
C79   H28   S    
C50   C57   A    
C78   H34   S    
C23   O10   A    
C80   H32   S    
C10   C13   A    
C32   C70   S    
C53   C58   A    
C75   N9    T    
C72   N6    T    
C24   N13   S    
O4    Zn2   S    
C81   H37   S    
C17   C65   S    
C33   C38   A    
C56   C59   A    
C25   O5    A    
C22   N11   S    
C3    H7    S    
C26   O6    A    
C47   C75   S    
C20   N1    A    
O1    Zn1   S    
C38   C40   A    
C5    C82   A    
N12   Zn4   S    
C80   N14   S    
C17   C19   A    
C79   H26   S    
C18   C20   A    
C42   C47   A    
C12   O13   A    
C44   C73   S    
C36   H38   S    
C24   C30   A    
C43   H4    S    
C61   C78   A    
C1    O1    A    
C33   C71   S    
C7    C51   A    
C5    C26   S    
C34   O11   A    
C11   H9    S    
C31   C69   S    
O5    Zn3   S    
C80   H31   S    
O10   Zn2   S    
C67   C82   A    
C27   O3    A    
C35   C57   A    
C40   C44   A    
C8    C27   S    
C63   N19   S    
C31   C36   A    
O8    Zn4   S    
C77   H22   S    
C16   C64   S    
C55   C60   A    
C30   C68   S    
H11   N18   S    
O12   Zn3   S    
