data_str_m12_o9_o22_f0_bcu.sym.148
_audit_creation_date              2012-12-11T17:45:21-0500
_audit_creation_method            fapswitch 2.2
_symmetry_space_group_name_H-M    P1
_symmetry_Int_Tables_number       1
_space_group_crystal_system       triclinic
_cell_length_a                    14.959452
_cell_length_b                    14.926969
_cell_length_c                    15.155534
_cell_angle_alpha                 110.252014
_cell_angle_beta                  109.111974
_cell_angle_gamma                 108.944934
_cell_volume                      2608.23304287

loop_
_atom_site_label
_atom_site_type_symbol
_atom_type_description
_atom_site_fract_x
_atom_site_fract_y
_atom_site_fract_z
_atom_type_partial_charge
C1    C     C_R   0.973597 0.248883 0.061880 -0.125024
C2    C     C_R   0.323606 0.787127 0.327135 0.049905
C3    C     C_R   0.302705 0.500306 0.936105 -0.007117
C4    C     C_R   0.946464 0.500486 0.305112 0.060096
C5    C     C_R   0.687006 0.408438 0.931118 -0.142325
C6    C     C_R   0.025331 0.593657 0.782403 -0.109040
C7    C     C_R   0.792469 0.195826 0.701452 -0.142634
C8    C     C_R   0.999791 0.801804 0.096149 -0.145459
C9    C     C_R   0.092434 0.806041 0.007978 -0.148942
C10   C     C_R   0.705275 0.194616 0.795175 -0.137194
C11   C     C_R   0.777555 0.592196 0.022793 -0.143008
C12   C     C_R   0.315063 0.758810 0.225178 -0.130672
C13   C     C_R   0.943513 0.410006 0.686028 -0.136262
C14   C     C_R   0.675726 0.500578 0.945711 -0.006797
C15   C     C_R   0.962544 0.504824 0.679749 0.044104
C16   C     C_R   0.703450 0.129526 0.702921 0.066950
C17   C     C_R   0.061064 0.868742 0.071058 0.069148
C18   C     C_R   0.624581 0.267122 0.098134 -0.120580
C19   C     C_R   0.699540 0.354880 0.203214 -0.154826
C20   C     C_R   0.747942 0.335462 0.286004 0.117411
C21   C     C_R   0.710167 0.226396 0.264045 -0.158597
C22   C     C_R   0.629288 0.138808 0.159937 -0.119599
C23   C     C_R   0.210344 0.408815 0.905504 -0.149046
C24   C     C_R   0.587907 0.159230 0.076527 -0.089558
C25   C     C_R   0.854080 0.433001 0.487022 -0.252858
C26   C     C_R   0.949106 0.513958 0.585625 0.076993
C27   C     C_R   0.035722 0.595291 0.590699 0.012541
C28   C     C_R   0.026258 0.589979 0.496131 -0.256784
C29   C     C_R   0.935012 0.506164 0.397102 0.070466
C30   C     C_R   0.845669 0.427256 0.390766 0.025092
C31   C     C_R   0.166062 0.784195 0.753666 -0.203980
C32   C     C_R   0.269797 0.862739 0.842702 -0.114140
C33   C     C_R   0.353765 0.837586 0.863292 -0.099488
C34   C     C_R   0.998749 0.591418 0.299888 -0.172291
C35   C     C_R   0.334082 0.733837 0.795403 -0.127035
C36   C     C_R   0.229408 0.653316 0.709085 -0.135162
C37   C     C_R   0.144239 0.677633 0.688257 0.128850
C38   C     C_R   0.223000 0.014014 0.515571 -0.136969
C39   C     C_R   0.308486 0.998801 0.509407 -0.118352
C40   C     C_R   0.330533 0.923238 0.533928 0.116301
C41   C     C_R   0.268252 0.865648 0.567902 -0.193865
C42   C     C_R   0.179229 0.877190 0.568281 -0.124626
C43   C     C_R   0.156647 0.951196 0.542202 -0.102570
C44   C     C_R   0.520742 0.981447 0.624726 -0.233549
C45   C     C_R   0.301201 0.591557 0.998429 -0.134705
C46   C     C_R   0.618247 0.014443 0.622496 0.052953
C47   C     C_R   0.620634 0.948297 0.531185 0.028638
C48   C     C_R   0.522055 0.866060 0.437153 -0.245535
C49   C     C_R   0.423142 0.852904 0.432875 0.069809
C50   C     C_R   0.423163 0.910327 0.529700 0.015726
C51   C     C_R   0.744340 0.004860 0.460300 -0.200907
C52   C     C_R   0.849889 0.050176 0.476264 -0.127692
C53   C     C_R   0.933416 0.054364 0.556864 -0.118392
C54   C     C_R   0.911488 0.012914 0.621563 -0.125637
C55   C     C_R   0.807053 0.971401 0.608860 -0.143980
C56   C     C_R   0.915054 0.408492 0.212515 -0.135132
C57   C     C_R   0.723393 0.969411 0.529640 0.122772
C58   C     C_3   0.471649 0.396271 0.832096 -0.401950
C59   C     C_3   0.368688 0.391661 0.835016 -0.413239
C60   C     C_3   0.572401 0.509099 0.038424 -0.389188
C61   C     C_3   0.569960 0.600868 0.926494 -0.413636
C62   C     C_3   0.574325 0.501402 0.934269 0.397835
C63   C     C_3   0.399023 0.500729 0.930497 0.402062
C64   C     C_3   0.472933 0.514705 0.038670 -0.397216
C65   C     C_3   0.462306 0.596211 0.917015 -0.402054
C66   C     C_R   0.197497 0.059874 0.822844 -0.185194
C67   C     C_R   0.219478 0.748543 0.311962 -0.122665
C68   C     C_R   0.146212 0.061233 0.884768 -0.260314
C69   C     C_R   0.203560 0.141508 0.994934 0.128548
C70   C     C_R   0.310334 0.223807 0.041112 -0.221419
C71   C     C_R   0.361550 0.221596 0.979026 -0.161965
C72   C     C_R   0.307257 0.136803 0.871076 0.394093
C73   C     C_R   0.167302 0.040952 0.084107 -0.230255
C74   C     C_R   0.095458 0.986177 0.111158 0.053305
C75   C     C_R   0.046475 0.040516 0.157686 0.022151
C76   C     C_R   0.059668 0.137701 0.159719 -0.239894
C77   C     C_R   0.097825 0.167254 0.095558 0.053774
C78   C     C_R   0.067909 0.251946 0.973467 -0.139009
C79   C     C_R   0.160238 0.123220 0.064509 0.044197
C80   C     C_R   0.855434 0.948590 0.119503 -0.144676
C81   C     C_R   0.779477 0.900310 0.146368 -0.154263
C82   C     C_R   0.814152 0.892786 0.239712 -0.106797
C83   C     C_R   0.925363 0.939774 0.309743 -0.122121
C84   C     C_R   0.001862 0.994269 0.286523 -0.190031
C85   C     C_R   0.966995 0.993258 0.188319 0.120171
C86   C     C_R   0.052065 0.223824 0.047866 0.059525
H1    H     H_    0.938024 0.235413 0.110403 0.092799
H2    H     H_    0.048760 0.678069 0.807388 0.112136
H3    H     H_    0.823479 0.173687 0.647862 0.132083
H4    H     H_    0.976329 0.823062 0.156147 0.127295
H5    H     H_    0.151678 0.834765 0.984354 0.098664
H6    H     H_    0.659300 0.168126 0.831918 0.089798
H7    H     H_    0.797593 0.677162 0.059210 0.111405
H8    H     H_    0.898908 0.325973 0.620113 0.101891
H9    H     H_    0.528747 0.091836 0.994887 0.107920
H10   H     H_    0.597675 0.283252 0.033082 0.094889
H11   H     H_    0.726417 0.437894 0.217906 0.114538
H12   H     H_    0.380326 0.775723 0.206543 0.090289
H13   H     H_    0.746230 0.208804 0.326018 0.106787
H14   H     H_    0.601604 0.055109 0.143115 0.100910
H15   H     H_    0.788339 0.372184 0.485151 0.129656
H16   H     H_    0.096382 0.646547 0.499557 0.133500
H17   H     H_    0.101942 0.805203 0.737164 0.110262
H18   H     H_    0.285523 0.943285 0.895508 0.132748
H19   H     H_    0.434401 0.898595 0.931249 0.091559
H20   H     H_    0.400621 0.716806 0.809212 0.102186
H21   H     H_    0.215173 0.573023 0.657110 0.107327
H22   H     H_    0.089780 0.962139 0.545995 0.095220
H23   H     H_    0.180947 0.324123 0.849006 0.097270
H24   H     H_    0.209815 0.076176 0.502143 0.101672
H25   H     H_    0.358635 0.046978 0.487301 0.110339
H26   H     H_    0.286275 0.809411 0.590049 0.129950
H27   H     H_    0.128362 0.830306 0.590299 0.119621
H28   H     H_    0.516894 0.025853 0.695511 0.132000
H29   H     H_    0.523179 0.818197 0.365462 0.123237
H30   H     H_    0.681411 0.005809 0.400134 0.115198
H31   H     H_    0.867360 0.084176 0.427546 0.130675
H32   H     H_    0.015241 0.090388 0.569572 0.099385
H33   H     H_    0.976155 0.016281 0.683847 0.113484
H34   H     H_    0.021319 0.675126 0.352468 0.113799
H35   H     H_    0.792465 0.945308 0.663555 0.110571
H36   H     H_    0.471836 0.321001 0.826573 0.163042
H37   H     H_    0.468862 0.395951 0.757700 0.159484
H38   H     H_    0.309800 0.376869 0.756809 0.150956
H39   H     H_    0.329787 0.321288 0.844812 0.173297
H40   H     H_    0.572603 0.437287 0.044515 0.148430
H41   H     H_    0.428151 0.449939 0.052442 0.162684
H42   H     H_    0.638672 0.678674 0.999872 0.158811
H43   H     H_    0.576594 0.600801 0.855471 0.156081
H44   H     H_    0.411118 0.581345 0.835900 0.156185
H45   H     H_    0.356670 0.676620 0.029787 0.087274
H46   H     H_    0.481596 0.677008 0.979009 0.141661
H47   H     H_    0.646502 0.583508 0.112139 0.154758
H48   H     H_    0.499631 0.595400 0.107385 0.153635
H49   H     H_    0.153581 0.994631 0.739520 0.132350
H50   H     H_    0.063999 0.995977 0.848791 0.133645
H51   H     H_    0.355788 0.285460 0.126339 0.134181
H52   H     H_    0.444504 0.283812 0.016738 0.121922
H53   H     H_    0.215738 0.008679 0.059955 0.128191
H54   H     H_    0.023465 0.178661 0.197231 0.127838
H55   H     H_    0.864357 0.323796 0.186357 0.114611
H56   H     H_    0.827541 0.950522 0.044943 0.112600
H57   H     H_    0.693700 0.867167 0.093917 0.106023
H58   H     H_    0.754995 0.851753 0.258435 0.115502
H59   H     H_    0.952156 0.933598 0.381688 0.120636
H60   H     H_    0.087553 0.030236 0.340170 0.114607
H61   H     H_    0.193156 0.745237 0.368712 0.123354
H62   H     H_    0.122499 0.246323 0.943231 0.124602
H63   H     H_    0.624927 0.323158 0.881769 0.094006
N1    N     N_R   0.947080 0.293830 0.002870 -0.041750
N2    N     N_R   0.054040 0.556820 0.847890 -0.040388
N3    N     N_R   0.848290 0.293830 0.791110 -0.041885
N4    N     N_R   0.995680 0.706170 0.053910 -0.040785
N5    N     N_R   0.052920 0.706170 0.997130 -0.041033
N6    N     N_R   0.791050 0.293830 0.847890 -0.038296
N7    N     N_R   0.846330 0.556820 0.053910 -0.037366
N8    N     N_R   0.997640 0.443180 0.791110 -0.040240
N9    N     N_R   0.208950 0.706170 0.152110 -0.040190
N10   N     N_R   0.153670 0.443180 0.946090 -0.036094
N11   N     N_R   0.002360 0.556820 0.208890 -0.038888
N12   N     N_R   0.210070 0.556820 0.002870 -0.034248
N13   N     N_R   0.945960 0.443180 0.152110 -0.039360
N14   N     N_R   0.151710 0.706170 0.208890 -0.042887
N15   N     N_R   0.004320 0.293830 0.946090 -0.041716
N16   N     N_R   0.789930 0.443180 0.997130 -0.036412
Ni1   Ni    Ni4+2 0.869690 0.369690 0.000000 0.210872
Ni2   Ni    Ni4+2 0.130310 0.630310 0.000000 0.218010
Ni3   Ni    Ni4+2 0.000970 0.369690 0.869780 0.216591
Ni4   Ni    Ni4+2 0.999030 0.630310 0.130220 0.213771
C87   C     C_3   0.366717 0.123269 0.809339 -1.098145
H64   H     H_    0.357747 0.040047 0.779941 0.276710
H65   H     H_    0.333184 0.134812 0.739895 0.272750
H66   H     H_    0.454857 0.182691 0.860767 0.232353

loop_
_geom_bond_atom_site_label_1
_geom_bond_atom_site_label_2
_ccdc_geom_bond_type
C58   C62   S    
C66   C68   A    
C55   H35   S    
C1    H1    S    
N16   Ni1   S    
C18   H10   S    
C73   C74   A    
C54   C55   A    
C3    C23   A    
C35   C36   A    
C2    C12   A    
C9    H5    S    
C63   C65   S    
C65   H44   S    
C19   H11   S    
C6    H2    S    
C20   C30   S    
C53   C54   A    
C78   N15   A    
C26   C27   A    
C80   C85   A    
C18   C24   A    
N2    N8    A    
C28   C29   A    
C38   C39   A    
C21   H13   S    
C11   C14   A    
N2    Ni2   S    
C66   H49   S    
C87   H64   S    
N6    Ni1   S    
C14   C62   S    
C56   N13   A    
N7    Ni4   S    
C25   C30   A    
C5    H63   S    
N10   Ni3   S    
C60   C62   S    
C18   C19   A    
C41   C42   A    
C45   N12   A    
C6    C15   A    
C83   H59   S    
C75   C85   S    
C66   C72   A    
C83   C84   A    
C68   C69   A    
C41   H26   S    
C23   N10   A    
N11   Ni4   S    
C32   H18   S    
C70   C71   A    
C51   C57   A    
C5    N16   A    
C38   H24   S    
C12   H12   S    
C4    C29   S    
C78   H62   S    
C52   H31   S    
C78   C86   A    
C39   H25   S    
C10   H6    S    
N13   Ni1   S    
C21   C22   A    
C4    C56   A    
C36   H21   S    
C61   C62   S    
N8    Ni3   S    
C13   N8    A    
N3    Ni3   S    
C44   C46   A    
N9    Ni2   S    
C81   C82   A    
C71   H52   S    
C64   H48   S    
C77   C79   A    
C34   H34   S    
C23   H23   S    
C4    C34   A    
C58   H36   S    
N1    Ni1   S    
C22   H14   S    
C74   C75   A    
C51   C52   A    
C34   N11   A    
C68   H50   S    
C33   H19   S    
C76   C77   A    
C28   H16   S    
C82   H58   S    
C2    C67   A    
C24   H9    S    
C16   C46   S    
C39   C40   A    
C11   H7    S    
C53   H32   S    
C15   C26   S    
C73   H53   S    
C58   C59   S    
C3    C45   A    
C7    N3    A    
C72   C87   S    
C31   H17   S    
C75   C76   A    
C29   C30   A    
C2    C49   S    
C67   N14   A    
C47   C57   S    
C42   H27   S    
C47   C48   A    
N3    N6    A    
N15   Ni3   S    
C48   C49   A    
C64   H41   S    
N10   N12   A    
C58   H37   S    
C1    N1    A    
C84   C85   A    
C8    N4    A    
C5    C14   A    
N12   Ni2   S    
C11   N7    A    
C48   H29   S    
C6    N2    A    
N9    N14   A    
C9    C17   A    
C40   C41   A    
C77   C86   S    
C45   H45   S    
C3    C63   S    
C55   C57   A    
C67   H61   S    
C17   C74   S    
C59   H38   S    
C22   C24   A    
N5    Ni2   S    
C69   C79   S    
C8    H4    S    
C42   C43   A    
C56   H55   S    
C76   H54   S    
C65   H46   S    
C52   C53   A    
C44   C50   A    
C1    C86   A    
C46   C47   A    
C36   C37   A    
C59   C63   S    
C31   C32   A    
C7    C16   A    
C51   H30   S    
C80   C81   A    
C73   C79   A    
C10   N6    A    
C9    N5    A    
C61   H43   S    
C59   H39   S    
N1    N15   A    
C80   H56   S    
C8    C17   A    
C13   H8    S    
C60   C64   S    
C12   N9    A    
C32   C33   A    
C19   C20   A    
C13   C15   A    
C25   C26   A    
C38   C43   A    
C35   H20   S    
C10   C16   A    
C25   H15   S    
C87   H65   S    
N7    N16   A    
C27   C37   S    
C40   C50   S    
C60   H40   S    
C33   C35   A    
C61   H42   S    
C43   H22   S    
C61   C65   S    
C69   C70   A    
N14   Ni4   S    
C44   H28   S    
C63   C64   S    
C31   C37   A    
C81   H57   S    
C71   C72   A    
C20   C21   A    
C70   H51   S    
C49   C50   A    
N4    Ni4   S    
C27   C28   A    
C84   H60   S    
C82   C83   A    
N4    N5    A    
C54   H33   S    
C60   H47   S    
N11   N13   A    
C87   H66   S    
C7    H3    S    
