data_str_m12_o4_o13_f0_bcu.sym.16
_audit_creation_date              2012-12-11T16:53:30-0500
_audit_creation_method            fapswitch 2.2
_symmetry_space_group_name_H-M    P1
_symmetry_Int_Tables_number       1
_space_group_crystal_system       triclinic
_cell_length_a                    14.868514
_cell_length_b                    14.757841
_cell_length_c                    16.844245
_cell_angle_alpha                 108.644325
_cell_angle_beta                  105.575034
_cell_angle_gamma                 108.543672
_cell_volume                      3025.29846701

loop_
_atom_site_label
_atom_site_type_symbol
_atom_type_description
_atom_site_fract_x
_atom_site_fract_y
_atom_site_fract_z
_atom_type_partial_charge
C1    C     C_R   0.089159 0.287024 0.076594 -0.151015
C2    C     C_R   0.061675 0.550485 0.264213 -0.131102
C3    C     C_R   0.278078 0.785984 0.175154 -0.136346
C4    C     C_R   0.936288 0.518283 0.745790 -0.127269
C5    C     C_R   0.698097 0.404533 0.996576 -0.155272
C6    C     C_R   0.334407 0.783237 0.253584 0.064900
C7    C     C_R   0.637188 0.434531 0.942399 0.099752
C8    C     C_R   0.968162 0.538440 0.272763 0.078879
C9    C     C_R   0.995335 0.823545 0.988704 0.058394
C10   C     C_R   0.379483 0.438638 0.856341 0.081237
C11   C     C_R   0.338668 0.405260 0.913323 0.028035
C12   C     C_R   0.027415 0.577599 0.742365 0.080426
C13   C     C_R   0.371927 0.338344 0.942881 -0.368125
C14   C     C_R   0.461430 0.329548 0.937479 0.585011
C15   C     C_R   0.523331 0.396846 0.908744 -0.142555
C16   C     C_R   0.768009 0.200242 0.811174 0.531057
C17   C     C_R   0.472163 0.437638 0.856650 -0.129179
C18   C     C_3   0.499508 0.531439 0.834045 0.714286
C19   C     C_3   0.396568 0.531696 0.834075 -0.673353
C20   C     C_R   0.957147 0.587057 0.358495 0.102937
C21   C     C_R   0.035925 0.616335 0.672849 0.102023
C22   C     C_R   0.139612 0.679944 0.594537 0.131937
C23   C     C_R   0.751938 0.193674 0.723539 -0.084098
C24   C     C_R   0.132614 0.660331 0.669377 -0.207085
C25   C     C_R   0.945833 0.599831 0.604752 -0.287244
C26   C     C_R   0.948368 0.612664 0.526611 0.094931
C27   C     C_R   0.046031 0.652603 0.521658 0.093250
C28   C     C_R   0.250731 0.526885 0.941706 -0.145891
C29   C     C_R   0.046887 0.652284 0.439054 -0.286167
C30   C     C_R   0.860366 0.556355 0.363616 -0.215432
C31   C     C_R   0.854777 0.576573 0.449222 0.134732
C32   C     C_R   0.710967 0.098880 0.635440 0.157735
C33   C     C_R   0.441982 0.858258 0.319166 0.125711
C34   C     C_R   0.280556 0.452019 0.956055 0.107344
C35   C     C_R   0.579943 0.037938 0.393034 -0.224121
C36   C     C_R   0.490306 0.956296 0.318044 -0.172682
C37   C     C_R   0.492398 0.837896 0.390088 -0.279914
C38   C     C_R   0.578820 0.920938 0.467487 0.201754
C39   C     C_R   0.619322 0.022892 0.470519 0.179572
C40   C     C_R   0.779041 0.297747 0.734456 -0.232169
C41   C     C_R   0.688653 0.110545 0.553872 -0.268514
C42   C     C_R   0.683414 0.995865 0.629817 -0.182106
C43   C     C_R   0.617659 0.906867 0.545731 -0.256787
C44   C     C_R   0.093990 0.138064 0.164480 0.148790
C45   C     C_R   0.273343 0.689456 0.252453 -0.144384
C46   C     C_R   0.004572 0.117921 0.092573 0.040363
C47   C     C_R   0.914164 0.023095 0.061554 -0.204876
C48   C     C_R   0.910823 0.960448 0.109805 -0.179898
C49   C     C_R   0.997219 0.990863 0.189073 0.019811
C50   C     C_R   0.090149 0.075379 0.211062 0.162852
C51   C     C_3   0.164049 0.167802 0.301670 -0.486485
C52   C     C_R   0.250274 0.434603 0.023358 -0.133197
C53   C     C_3   0.168405 0.237252 0.251553 -0.520256
C54   C     C_R   0.108161 0.603343 0.822403 -0.157090
C55   C     C_R   0.918124 0.203799 0.005536 -0.010088
C56   C     C_R   0.703724 0.498494 0.917826 -0.126330
C57   C     C_R   0.004414 0.194586 0.052987 0.016359
C58   C     C_3   0.448216 0.163416 0.913721 0.136384
C59   C     C_3   0.338549 0.103103 0.906824 -0.296666
C60   C     C_3   0.297594 0.982329 0.857189 -1.021397
C61   C     C_3   0.600631 0.664970 0.993077 0.198014
C62   C     C_3   0.603024 0.775691 0.025044 -0.312336
C63   C     C_3   0.625915 0.825080 0.127096 -1.001807
C64   C     C_3   0.499121 0.497801 0.736823 -0.456959
C65   C     C_3   0.528345 0.592211 0.713230 -0.188096
C66   C     C_3   0.519155 0.556514 0.614596 -0.972619
C67   C     C_R   0.888390 0.466178 0.186962 -0.145279
C68   C     C_3   0.242766 0.717652 0.584918 -0.436757
C69   C     C_3   0.339065 0.734193 0.660616 -0.264476
C70   C     C_3   0.434690 0.774098 0.640240 -0.936033
C71   C     C_3   0.750380 0.549155 0.456837 -0.446716
C72   C     C_3   0.662092 0.540115 0.377155 -0.230226
C73   C     C_3   0.568264 0.534955 0.399740 -0.937147
C74   C     C_3   0.646998 0.080888 0.832664 0.131101
C75   C     C_3   0.643676 0.031464 0.900132 -0.239644
C76   C     C_3   0.534872 0.951362 0.877359 -1.077854
C77   C     C_R   0.082504 0.807686 0.022810 -0.123025
C78   C     C_R   0.910352 0.723326 0.946181 -0.126760
H1    H     H_    0.167042 0.315733 0.126514 0.103156
H2    H     H_    0.857745 0.497530 0.702254 0.081043
H3    H     H_    0.406613 0.604258 0.888947 0.185755
H4    H     H_    0.337124 0.508864 0.765719 0.179487
H5    H     H_    0.119019 0.689562 0.434352 0.123646
H6    H     H_    0.790185 0.512714 0.301030 0.115835
H7    H     H_    0.201510 0.673275 0.722568 0.113687
H8    H     H_    0.872192 0.568106 0.608903 0.121069
H9    H     H_    0.714777 0.188209 0.554919 0.119258
H10   H     H_    0.707125 0.982774 0.689845 0.180873
H11   H     H_    0.611917 0.115503 0.393956 0.126602
H12   H     H_    0.682965 0.522469 0.864628 0.134644
H13   H     H_    0.590323 0.828350 0.543598 0.137683
H14   H     H_    0.455325 0.973377 0.262980 0.116082
H15   H     H_    0.459203 0.761376 0.390359 0.119274
H16   H     H_    0.844703 0.999925 0.003139 0.122306
H17   H     H_    0.839925 0.891011 0.088424 0.138968
H18   H     H_    0.127337 0.183470 0.350804 0.198247
H19   H     H_    0.238811 0.163856 0.329204 0.191014
H20   H     H_    0.134182 0.293264 0.271605 0.202767
H21   H     H_    0.255141 0.554868 0.890892 0.115779
H22   H     H_    0.246185 0.273863 0.251297 0.189333
H23   H     H_    0.805928 0.438644 0.168329 0.102379
H24   H     H_    0.775716 0.325596 0.682511 0.130597
H25   H     H_    0.260559 0.381171 0.052050 0.095882
H26   H     H_    0.187607 0.662851 0.849656 0.090048
H27   H     H_    0.841152 0.158934 0.997058 0.107673
H28   H     H_    0.296759 0.653129 0.295491 0.088248
H29   H     H_    0.497906 0.128166 0.939777 0.164208
H30   H     H_    0.445980 0.152522 0.844408 0.077794
H31   H     H_    0.340131 0.125238 0.976940 0.210292
H32   H     H_    0.283203 0.125061 0.867683 0.195140
H33   H     H_    0.298831 0.958181 0.788037 0.269443
H34   H     H_    0.162690 0.867104 0.055029 0.096066
H35   H     H_    0.216018 0.942677 0.848503 0.276147
H36   H     H_    0.345032 0.955112 0.898156 0.269606
H37   H     H_    0.676019 0.672458 0.036574 0.127659
H38   H     H_    0.539581 0.611527 0.005105 0.104013
H39   H     H_    0.663320 0.828837 0.012196 0.208468
H40   H     H_    0.527368 0.770656 0.985278 0.194247
H41   H     H_    0.564657 0.774114 0.140711 0.271266
H42   H     H_    0.627106 0.904995 0.147954 0.272894
H43   H     H_    0.702969 0.834341 0.168995 0.266879
H44   H     H_    0.570000 0.516774 0.604071 0.265919
H45   H     H_    0.830498 0.704261 0.907365 0.116940
H46   H     H_    0.437236 0.500545 0.565268 0.271786
H47   H     H_    0.544035 0.627035 0.600716 0.254226
H48   H     H_    0.476180 0.630435 0.722030 0.198253
H49   H     H_    0.609859 0.652239 0.760553 0.216194
H50   H     H_    0.554599 0.463012 0.731842 0.162661
H51   H     H_    0.421030 0.433872 0.684218 0.173416
H52   H     H_    0.422974 0.715487 0.572972 0.261513
H53   H     H_    0.448623 0.851617 0.638089 0.263155
H54   H     H_    0.504942 0.785131 0.693971 0.256019
H55   H     H_    0.351266 0.793384 0.727449 0.209363
H56   H     H_    0.139737 0.599689 0.316890 0.093895
H57   H     H_    0.327504 0.657486 0.663809 0.197020
H58   H     H_    0.233864 0.656913 0.519962 0.191150
H59   H     H_    0.258271 0.794037 0.579860 0.191727
H60   H     H_    0.539128 0.466197 0.415169 0.267344
H61   H     H_    0.589814 0.609821 0.459856 0.260962
H62   H     H_    0.504819 0.525084 0.339972 0.248097
H63   H     H_    0.690050 0.610361 0.363211 0.204885
H64   H     H_    0.636114 0.466343 0.314126 0.195003
H65   H     H_    0.725492 0.473125 0.462908 0.181122
H66   H     H_    0.762285 0.613636 0.521008 0.199625
H67   H     H_    0.306659 0.839052 0.146490 0.087109
H68   H     H_    0.591001 0.019814 0.761724 0.131600
H69   H     H_    0.622420 0.145878 0.852524 0.064133
H70   H     H_    0.694408 0.990122 0.900626 0.205998
H71   H     H_    0.673747 0.096547 0.970266 0.166743
H72   H     H_    0.474558 0.963495 0.832807 0.275713
H73   H     H_    0.523988 0.960097 0.941658 0.267954
H74   H     H_    0.524993 0.868997 0.842479 0.279416
H75   H     H_    0.672630 0.343003 0.017798 0.157535
H76   H     H_    0.336545 0.301706 0.979809 0.148888
N1    N     N_R   0.055640 0.348550 0.045600 -0.043842
N2    N     N_R   0.811290 0.303400 0.871650 -0.091455
N3    N     N_R   0.205180 0.552990 0.997660 -0.042292
N4    N     N_R   0.814810 0.361830 0.823710 -0.064714
N5    N     N_R   0.201660 0.494570 0.045600 -0.040116
N6    N     N_R   0.068420 0.560530 0.871650 -0.036756
N7    N     N_R   0.948050 0.295860 0.997660 -0.045115
N8    N     N_R   0.185190 0.638170 0.176290 -0.037329
N9    N     N_R   0.798340 0.505430 0.954400 -0.045266
N10   N     N_R   0.931580 0.439470 0.128350 -0.045056
N11   N     N_R   0.051950 0.704140 0.002340 -0.039741
N12   N     N_R   0.944360 0.651450 0.954400 -0.039939
N13   N     N_R   0.039170 0.492150 0.176290 -0.041583
N14   N     N_R   0.188710 0.696600 0.128350 -0.037228
N15   N     N_R   0.794820 0.447010 0.002340 -0.052248
N16   N     N_R   0.960830 0.507850 0.823710 -0.032824
Ni1   Ni    Ni4+2 0.119330 0.493420 0.109950 0.205516
Ni2   Ni    Ni4+2 0.880670 0.506580 0.890050 0.201583
Ni3   Ni    Ni4+2 0.872590 0.372590 0.000000 0.211039
Ni4   Ni    Ni4+2 0.127410 0.627410 0.000000 0.211182
O1    O     O_3   0.496170 0.272267 0.977940 -0.689291
O2    O     O_3   0.590930 0.627329 0.900862 -0.683967
O3    O     O_3   0.748498 0.117354 0.835150 -0.696130

loop_
_geom_bond_atom_site_label_1
_geom_bond_atom_site_label_2
_ccdc_geom_bond_type
C51   H19   S    
C52   H25   S    
N12   Ni2   S    
N11   N12   A    
C48   H17   S    
C27   C29   A    
C60   H36   S    
C58   O1    S    
C75   C76   S    
C3    C6    A    
N4    Ni2   S    
C59   H32   S    
C68   H59   S    
C39   C41   A    
C20   C30   A    
N1    N7    A    
C72   H64   S    
C56   N9    A    
C26   C27   A    
C37   C38   A    
C4    N16   A    
C55   H27   S    
C65   H49   S    
C40   N4    A    
C6    C45   A    
C4    H2    S    
C30   C31   A    
C73   H60   S    
C76   H74   S    
C10   C17   A    
C77   N11   A    
C23   C40   A    
C70   H52   S    
C33   C36   A    
C63   H41   S    
C58   H29   S    
C1    N1    A    
C70   H53   S    
C62   H39   S    
C67   N10   A    
N15   Ni3   S    
N8    Ni1   S    
C35   C36   A    
C68   C69   S    
C64   H50   S    
C16   N2    A    
C69   H55   S    
C32   C41   A    
C66   H44   S    
C4    C12   A    
C19   H4    S    
C24   H7    S    
C58   H30   S    
N11   Ni4   S    
N3    Ni4   S    
C36   H14   S    
C52   N5    A    
C31   C71   S    
C28   C34   A    
C59   C60   S    
C69   H57   S    
C13   C14   A    
C60   H35   S    
C69   C70   S    
C61   O2    S    
C7    C56   A    
C44   C53   S    
C28   N3    A    
C63   H43   S    
C44   C46   A    
C3    N14   A    
C50   C51   S    
C20   C29   A    
C11   C34   S    
C53   H22   S    
C72   H63   S    
C41   H9    S    
N2    Ni3   S    
C78   N12   A    
C74   C75   S    
C74   H69   S    
C68   H58   S    
C56   H12   S    
C55   N7    A    
C5    C7    A    
C18   C19   S    
N13   Ni1   S    
C73   H61   S    
C76   H73   S    
C25   C26   A    
C54   N6    A    
C12   C21   S    
C33   C37   A    
C51   C53   S    
C14   O1    S    
C77   H34   S    
N14   Ni4   S    
C45   N8    A    
C61   H37   S    
C62   C63   S    
N9    Ni2   S    
C51   H18   S    
C1    C57   A    
N7    Ni3   S    
C47   C48   A    
C66   H47   S    
C76   H72   S    
C10   C19   S    
C61   H38   S    
C70   H54   S    
C17   C18   S    
C37   H15   S    
N10   Ni3   S    
C9    C77   A    
C78   H45   S    
C22   C68   S    
C16   O3    S    
N5    Ni1   S    
N8    N14   A    
C35   H11   S    
C28   H21   S    
C48   C49   A    
C8    C20   S    
C3    H67   S    
C16   C23   A    
C22   C27   A    
C55   C57   A    
C46   C57   S    
C1    H1    S    
C49   C50   A    
C22   C24   A    
C42   H10   S    
C42   C43   A    
C45   H28   S    
C67   H23   S    
C71   H65   S    
C44   C50   A    
C15   C17   A    
C21   C25   A    
C46   C47   A    
C5    N15   A    
N6    Ni4   S    
C74   H68   S    
N10   N13   A    
C2    C8    A    
C23   C32   S    
C72   C73   S    
C2    H56   S    
C29   H5    S    
C73   H62   S    
C53   H20   S    
C54   H26   S    
C34   C52   A    
C6    C33   S    
N6    N16   A    
C65   H48   S    
N2    N4    A    
C58   C59   S    
C38   C43   A    
C60   H33   S    
C64   C65   S    
C63   H42   S    
C11   C13   A    
C18   C64   S    
C38   C39   A    
C74   O3    S    
N16   Ni2   S    
C75   H71   S    
C5    H75   S    
C35   C39   A    
C75   H70   S    
C7    C15   S    
C25   H8    S    
C59   H31   S    
C47   H16   S    
C66   H46   S    
C9    C78   A    
C30   H6    S    
C61   C62   S    
N9    N15   A    
C43   H13   S    
C13   H76   S    
C62   H40   S    
C10   C11   A    
C40   H24   S    
N1    Ni1   S    
C26   C31   A    
C71   C72   S    
C64   H51   S    
C8    C67   A    
N3    N5    A    
C65   C66   S    
C21   C24   A    
C32   C42   A    
C14   C15   A    
C19   H3    S    
C2    N13   A    
C12   C54   A    
C71   H66   S    
C18   O2    S    
