data_str_m4_o1_o24_f0_acs.sym.157
_audit_creation_date              2012-12-11T14:52:32-0500
_audit_creation_method            fapswitch 2.2
_symmetry_space_group_name_H-M    P1
_symmetry_Int_Tables_number       1
_space_group_crystal_system       triclinic
_cell_length_a                    19.07605
_cell_length_b                    10.995643
_cell_length_c                    18.618822
_cell_angle_alpha                 90.143078
_cell_angle_beta                  90.466232
_cell_angle_gamma                 90.236458
_cell_volume                      3905.18682178

loop_
_atom_site_label
_atom_site_type_symbol
_atom_type_description
_atom_site_fract_x
_atom_site_fract_y
_atom_site_fract_z
_atom_type_partial_charge
C1    C     C_R   0.268669 0.051200 0.849151 0.517902
C2    C     C_R   0.709739 0.996591 0.139410 0.536240
C3    C     C_R   0.790832 0.494323 0.860584 0.544782
C4    C     C_R   0.229092 0.545635 0.148149 0.531999
C5    C     C_3   0.506773 0.708587 0.969177 -0.131066
C6    C     C_3   0.478111 0.739775 0.042705 -0.105920
C7    C     C_3   0.043128 0.260011 0.952052 -0.086917
C8    C     C_3   0.014124 0.216469 0.023869 -0.128333
C9    C     C_R   0.319249 0.566554 0.971292 -0.001970
C10   C     C_R   0.712891 0.480662 0.048464 -0.014999
C11   C     C_R   0.795246 0.002389 0.956776 -0.017198
C12   C     C_R   0.175444 0.076729 0.025195 -0.005873
C13   C     C_R   0.309379 0.544343 0.044685 -0.134521
C14   C     C_R   0.723191 0.456583 0.974605 -0.144590
C15   C     C_R   0.782274 0.975829 0.029606 -0.133222
C16   C     C_R   0.183050 0.059024 0.950233 -0.132524
C17   C     C_R   0.254446 0.598985 0.081599 -0.006130
C18   C     C_R   0.781366 0.505897 0.938693 -0.004625
C19   C     C_R   0.720758 0.014797 0.062826 -0.003501
C20   C     C_R   0.238842 0.112792 0.912991 -0.009964
C21   C     C_R   0.215973 0.691228 0.049069 -0.167298
C22   C     C_R   0.833079 0.565387 0.978686 -0.164405
C23   C     C_R   0.669506 0.074634 0.022915 -0.163089
C24   C     C_R   0.277387 0.204916 0.946587 -0.155962
C25   C     C_R   0.226336 0.718511 0.977563 -0.176254
C26   C     C_R   0.821305 0.597064 0.049454 -0.178210
C27   C     C_R   0.681835 0.105764 0.952745 -0.174238
C28   C     C_R   0.270422 0.225850 0.019832 -0.169963
C29   C     C_R   0.273619 0.652631 0.936624 0.009442
C30   C     C_R   0.758473 0.564630 0.083482 0.021920
C31   C     C_R   0.745467 0.075539 0.919649 0.013697
C32   C     C_R   0.223453 0.158974 0.061186 0.000557
C33   C     C_R   0.478508 0.721528 0.530358 -0.131620
C34   C     C_R   0.481307 0.725136 0.457084 -0.137739
C35   C     C_R   0.969099 0.223171 0.527848 -0.124535
C36   C     C_R   0.974177 0.226861 0.454488 -0.133783
C37   C     C_R   0.499213 0.833467 0.422869 0.033278
C38   C     C_R   0.487211 0.828345 0.570974 0.033666
C39   C     C_R   0.995674 0.334060 0.421167 0.030494
C40   C     C_R   0.982235 0.328111 0.569123 0.035826
C41   C     C_R   0.506251 0.941925 0.462494 -0.125309
C42   C     C_R   0.499408 0.939507 0.536702 -0.132619
C43   C     C_R   0.002913 0.441909 0.461119 -0.144861
C44   C     C_R   0.996831 0.438720 0.535345 -0.151271
C45   C     C_R   0.442421 0.817251 0.863802 0.530371
C46   C     C_R   0.564320 0.815427 0.137519 0.540387
C47   C     C_R   0.942638 0.317317 0.863873 0.532106
C48   C     C_R   0.063087 0.317954 0.137463 0.536044
C49   C     C_R   0.183369 0.592157 0.544584 -0.133918
C50   C     C_R   0.817006 0.583913 0.453795 -0.134302
C51   C     C_R   0.717203 0.202144 0.523426 -0.123539
C52   C     C_R   0.277478 0.232003 0.481378 -0.128296
C53   C     C_R   0.178581 0.592132 0.471453 -0.123221
C54   C     C_R   0.823166 0.579604 0.526941 -0.124505
C55   C     C_R   0.715987 0.190433 0.450254 -0.136882
C56   C     C_R   0.286708 0.201605 0.552637 -0.127753
C57   C     C_R   0.238062 0.568369 0.429877 0.041880
C58   C     C_R   0.763303 0.562423 0.569183 0.038155
C59   C     C_R   0.754374 0.097420 0.418894 0.030086
C60   C     C_R   0.245312 0.109699 0.582939 0.028544
C61   C     C_R   0.302431 0.542691 0.462319 -0.151225
C62   C     C_R   0.697776 0.542040 0.537635 -0.149946
C63   C     C_R   0.802788 0.029362 0.459408 -0.136413
C64   C     C_R   0.187502 0.062893 0.544879 -0.132981
C65   C     C_R   0.307635 0.545690 0.536215 -0.139231
C66   C     C_R   0.691341 0.548540 0.464005 -0.140113
C67   C     C_R   0.804280 0.041574 0.533019 -0.146771
C68   C     C_R   0.177220 0.095819 0.473668 -0.127374
C69   C     C_R   0.248812 0.577825 0.576836 0.034478
C70   C     C_R   0.750542 0.576943 0.422733 0.031710
C71   C     C_R   0.758689 0.123517 0.565231 0.039411
C72   C     C_R   0.225590 0.173695 0.440432 0.026880
C73   C     C_R   0.274382 0.682355 0.859348 0.528954
C74   C     C_R   0.740797 0.631319 0.149980 0.523523
C75   C     C_R   0.760142 0.134687 0.851040 0.528553
C76   C     C_R   0.225315 0.183100 0.140273 0.540529
C77   C     C_R   0.270526 0.049305 0.647450 0.551033
C78   C     C_R   0.730005 0.049016 0.351749 0.559936
C79   C     C_R   0.773745 0.541141 0.644044 0.557802
C80   C     C_R   0.226832 0.542896 0.355377 0.546382
C81   C     C_R   0.468245 0.823064 0.645892 0.561286
C82   C     C_R   0.528721 0.823977 0.351956 0.564464
C83   C     C_R   0.966545 0.322840 0.644919 0.556382
C84   C     C_R   0.027993 0.324021 0.351457 0.549262
C85   C     C_R   0.259435 0.633054 0.645620 0.560491
C86   C     C_R   0.740375 0.633140 0.354393 0.552187
C87   C     C_R   0.762165 0.144771 0.640904 0.553835
C88   C     C_R   0.224711 0.191641 0.363160 0.575543
C89   C     C_3   0.509416 0.929065 0.028102 -0.113543
C90   C     C_3   0.539469 0.895701 0.952720 -0.097162
C91   C     C_3   0.971980 0.396208 0.046110 -0.095236
C92   C     C_3   0.001110 0.440862 0.973024 -0.119394
C93   C     C_3   0.443823 0.852669 0.011869 0.006072
C94   C     C_3   0.573902 0.781454 0.985256 -0.001108
C95   C     C_3   0.944215 0.279772 0.010375 -0.005063
C96   C     C_3   0.070747 0.375598 0.989601 0.000957
C97   C     C_3   0.472713 0.821897 0.937180 0.054849
C98   C     C_3   0.543814 0.815042 0.060335 0.035177
C99   C     C_3   0.972964 0.323459 0.937240 0.044777
C100  C     C_3   0.041061 0.330674 0.061657 0.037515
Cr1   Cr    Cr6+3 0.229630 0.835900 0.747350 0.998971
Cr2   Cr    Cr6+3 0.770370 0.835900 0.252650 0.998855
Cr3   Cr    Cr6+3 0.729630 0.335900 0.747350 1.001144
Cr4   Cr    Cr6+3 0.270370 0.335900 0.252650 0.997043
Cr5   Cr    Cr6+3 0.387410 0.989850 0.750850 1.008897
Cr6   Cr    Cr6+3 0.612590 0.989850 0.249150 1.006739
Cr7   Cr    Cr6+3 0.887410 0.489850 0.750850 1.000558
Cr8   Cr    Cr6+3 0.112590 0.489850 0.249150 0.997791
Cr9   Cr    Cr6+3 0.385800 0.677120 0.749340 0.987251
Cr10  Cr    Cr6+3 0.614200 0.677120 0.250660 0.991563
Cr11  Cr    Cr6+3 0.885800 0.177120 0.749340 0.990284
Cr12  Cr    Cr6+3 0.114200 0.177120 0.250660 0.989474
H1    H     H_    0.507922 0.021849 0.051615 0.114845
H2    H     H_    0.564260 0.960764 0.915151 0.125357
H3    H     H_    0.943231 0.454148 0.084762 0.128903
H4    H     H_    0.997409 0.534662 0.951533 0.108467
H5    H     H_    0.507934 0.615921 0.946019 0.118620
H6    H     H_    0.451421 0.671684 0.077149 0.134172
H7    H     H_    0.070790 0.199483 0.914093 0.134046
H8    H     H_    0.013900 0.123450 0.044554 0.123958
H9    H     H_    0.341117 0.478610 0.072737 0.133922
H10   H     H_    0.686630 0.398181 0.945884 0.136561
H11   H     H_    0.819893 0.925714 0.061307 0.144446
H12   H     H_    0.152576 0.990102 0.922696 0.135972
H13   H     H_    0.174128 0.734972 0.077569 0.144638
H14   H     H_    0.881221 0.594251 0.953727 0.131090
H15   H     H_    0.620982 0.103602 0.047051 0.130165
H16   H     H_    0.319653 0.248079 0.918353 0.138422
H17   H     H_    0.196422 0.789698 0.952515 0.134619
H18   H     H_    0.860794 0.651896 0.076457 0.134914
H19   H     H_    0.641830 0.158341 0.925484 0.136738
H20   H     H_    0.304100 0.290983 0.045870 0.129301
H21   H     H_    0.467698 0.634300 0.554755 0.127954
H22   H     H_    0.474876 0.640441 0.427795 0.125453
H23   H     H_    0.954152 0.137409 0.551894 0.136933
H24   H     H_    0.966404 0.143184 0.424516 0.129757
H25   H     H_    0.520435 0.026715 0.436811 0.135842
H26   H     H_    0.504097 0.023337 0.567079 0.126874
H27   H     H_    0.017058 0.526632 0.435571 0.117538
H28   H     H_    0.003879 0.521651 0.566125 0.111414
O1    O     O_R   0.214270 0.709000 0.827470 -0.517631
O2    O     O_R   0.785730 0.709000 0.172530 -0.535843
O3    O     O_R   0.714270 0.209000 0.827470 -0.532868
O4    O     O_R   0.285730 0.209000 0.172530 -0.501649
O5    O     O_R   0.445950 0.919440 0.676520 -0.493805
O6    O     O_R   0.554050 0.919440 0.323480 -0.495663
O7    O     O_R   0.945950 0.419440 0.676520 -0.503113
O8    O     O_R   0.054050 0.419440 0.323480 -0.504667
O9    O     O_R   0.456730 0.717630 0.669840 -0.523845
O10   O     O_R   0.543270 0.717630 0.330160 -0.521989
O11   O     O_R   0.956730 0.217630 0.669840 -0.522067
O12   O     O_R   0.043270 0.217630 0.330160 -0.529242
O13   O     O_R   0.320620 0.625640 0.672920 -0.506357
O14   O     O_R   0.679380 0.625640 0.327080 -0.509189
O15   O     O_R   0.820620 0.125640 0.672920 -0.506500
O16   O     O_R   0.179380 0.125640 0.327080 -0.495739
O17   O     O_3   0.334280 0.834290 0.749180 -0.273334
O18   O     O_3   0.665720 0.834290 0.250820 -0.281271
O19   O     O_3   0.834280 0.334290 0.749180 -0.283909
O20   O     O_3   0.165720 0.334290 0.250820 -0.306229
O21   O     O_R   0.236160 0.958490 0.823130 -0.525833
O22   O     O_R   0.763840 0.958490 0.176870 -0.507909
O23   O     O_R   0.736160 0.458490 0.823130 -0.502014
O24   O     O_R   0.263840 0.458490 0.176870 -0.525963
O25   O     O_R   0.332080 0.075470 0.831280 -0.528410
O26   O     O_R   0.667920 0.075470 0.168720 -0.534981
O27   O     O_R   0.832080 0.575470 0.831280 -0.525252
O28   O     O_R   0.167920 0.575470 0.168720 -0.523621
O29   O     O_R   0.446300 0.918110 0.826620 -0.495454
O30   O     O_R   0.553700 0.918110 0.173380 -0.510205
O31   O     O_R   0.946300 0.418110 0.826620 -0.513440
O32   O     O_R   0.053700 0.418110 0.173380 -0.497841
O33   O     O_R   0.457110 0.716200 0.831760 -0.542591
O34   O     O_R   0.542890 0.716200 0.168240 -0.530486
O35   O     O_R   0.957110 0.216200 0.831760 -0.528949
O36   O     O_R   0.042890 0.216200 0.168240 -0.543963
O37   O     O_R   0.320980 0.624310 0.823030 -0.537813
O38   O     O_R   0.679020 0.624310 0.176970 -0.523183
O39   O     O_R   0.820980 0.124310 0.823030 -0.529399
O40   O     O_R   0.179020 0.124310 0.176970 -0.524623
O41   O     O_R   0.213890 0.710430 0.665540 -0.516287
O42   O     O_R   0.786110 0.710430 0.334460 -0.520821
O43   O     O_R   0.713890 0.210430 0.665540 -0.526181
O44   O     O_R   0.286110 0.210430 0.334460 -0.506715
O45   O     O_R   0.235810 0.959820 0.673020 -0.500514
O46   O     O_R   0.764190 0.959820 0.326980 -0.500855
O47   O     O_R   0.735810 0.459820 0.673020 -0.502971
O48   O     O_R   0.264190 0.459820 0.326980 -0.524342
O49   O     O_R   0.331700 0.076900 0.669350 -0.524481
O50   O     O_R   0.668300 0.076900 0.330650 -0.520603
O51   O     O_R   0.831700 0.576900 0.669350 -0.525208
O52   O     O_R   0.168300 0.576900 0.330650 -0.523753
C101  C     C_3   0.374267 0.877653 0.044747 -0.301634
C102  C     C_3   0.331766 0.943531 0.991877 -0.415087
H29   H     H_    0.357335 0.032339 0.981881 0.180084
H30   H     H_    0.326573 0.891331 0.941179 0.146109
H31   H     H_    0.280489 0.950807 0.016742 0.170011
H32   H     H_    0.347528 0.791763 0.059086 0.167782
H33   H     H_    0.380972 0.932791 0.094516 0.171902
C103  C     C_3   0.632932 0.709440 0.951542 -0.296259
C104  C     C_3   0.700561 0.776451 0.948961 -0.422371
H34   H     H_    0.689724 0.865370 0.924722 0.176461
H35   H     H_    0.722093 0.780689 0.004080 0.168098
H36   H     H_    0.738061 0.729656 0.913465 0.175162
H37   H     H_    0.637973 0.626208 0.982408 0.168096
H38   H     H_    0.618725 0.684187 0.895271 0.171166
C105  C     C_3   0.888158 0.206429 0.047958 -0.294516
C106  C     C_3   0.819071 0.268566 0.048071 -0.426538
H39   H     H_    0.827155 0.359549 0.071218 0.172641
H40   H     H_    0.798608 0.270890 0.992489 0.167232
H41   H     H_    0.782357 0.220768 0.083869 0.166248
H42   H     H_    0.886338 0.116915 0.023295 0.158362
H43   H     H_    0.903745 0.192421 0.105117 0.175431
C107  C     C_3   0.140057 0.436305 0.972736 -0.268868
C108  C     C_3   0.158189 0.422899 0.893173 -0.398409
H44   H     H_    0.158783 0.326188 0.876528 0.150072
H45   H     H_    0.119664 0.472867 0.859449 0.173392
H46   H     H_    0.211181 0.458872 0.882849 0.162776
H47   H     H_    0.134605 0.533705 0.985698 0.163726
H48   H     H_    0.181657 0.397706 0.006968 0.153278
H49   H     H_    0.137220 0.614733 0.575425 0.125147
H50   H     H_    0.863218 0.603168 0.422195 0.127759
H51   H     H_    0.684843 0.272115 0.547058 0.142101
H52   H     H_    0.313937 0.294949 0.457101 0.132256
H53   H     H_    0.127669 0.609117 0.447767 0.132094
H54   H     H_    0.875078 0.589266 0.550211 0.138383
H55   H     H_    0.680253 0.246268 0.419171 0.128166
H56   H     H_    0.330263 0.242276 0.581815 0.131338
H57   H     H_    0.347994 0.519623 0.430772 0.113679
H58   H     H_    0.651922 0.523141 0.569795 0.120855
H59   H     H_    0.834520 0.958848 0.435408 0.137193
H60   H     H_    0.153757 0.994168 0.568029 0.131558
H61   H     H_    0.358418 0.531369 0.560972 0.123063
H62   H     H_    0.639392 0.541443 0.440362 0.136457
H63   H     H_    0.839255 0.985228 0.564632 0.121719
H64   H     H_    0.134708 0.053686 0.443649 0.138236
C109  C     C_3   0.374329 0.494169 0.930395 -0.263591
C110  C     C_3   0.426503 0.418186 0.974171 -0.489409
H65   H     H_    0.449070 0.472639 0.018801 0.143335
H66   H     H_    0.402697 0.335097 0.996165 0.144905
H67   H     H_    0.469756 0.388611 0.938670 0.135437
H68   H     H_    0.348070 0.435200 0.890022 0.155901
H69   H     H_    0.407066 0.558584 0.901038 0.199358
C111  C     C_3   0.658887 0.406774 0.088570 -0.264117
C112  C     C_3   0.584436 0.443531 0.069357 -0.445955
H70   H     H_    0.575539 0.539891 0.083725 0.191646
H71   H     H_    0.575045 0.430592 0.010974 0.127213
H72   H     H_    0.546792 0.385977 0.099361 0.137073
H73   H     H_    0.665560 0.309612 0.074597 0.151234
H74   H     H_    0.666836 0.412066 0.147545 0.171445
C113  C     C_3   0.861270 0.956067 0.919682 -0.265437
C114  C     C_3   0.905474 0.867319 0.962776 -0.485660
H75   H     H_    0.928300 0.913238 0.010517 0.132675
H76   H     H_    0.872120 0.792039 0.980479 0.161906
H77   H     H_    0.948380 0.830861 0.929115 0.145604
H78   H     H_    0.845511 0.909505 0.868957 0.171445
H79   H     H_    0.896357 0.033647 0.907065 0.189498
C115  C     C_3   0.127977 0.990180 0.067171 -0.267758
C116  C     C_3   0.075138 0.912297 0.024341 -0.491569
H80   H     H_    0.047819 0.966066 0.982459 0.146903
H81   H     H_    0.099189 0.833983 0.997818 0.141352
H82   H     H_    0.035969 0.874492 0.062073 0.137850
H83   H     H_    0.161495 0.930223 0.100398 0.158712
H84   H     H_    0.095707 0.042077 0.104831 0.196861

loop_
_geom_bond_atom_site_label_1
_geom_bond_atom_site_label_2
_ccdc_geom_bond_type
C58   C62   A    
C102  H30   S    
C49   C53   A    
C103  H37   S    
C14   H10   S    
C55   C59   A    
C42   H26   S    
C34   C37   A    
C27   H19   S    
C41   C42   A    
C14   C18   A    
Cr9   O9    S    
C35   C36   A    
C78   O50   A    
C105  H43   S    
C108  H44   S    
C116  H82   S    
C25   H17   S    
Cr2   O18   S    
C5    C94   S    
C13   H9    S    
C3    O27   A    
C7    C8    S    
C107  H48   S    
Cr7   O31   S    
C46   C98   S    
C15   C19   A    
C7    C96   S    
C110  H67   S    
C67   H63   S    
C50   C54   A    
C7    C99   S    
C109  H68   S    
C66   H62   S    
Cr11  O35   S    
Cr6   O26   S    
C65   H61   S    
Cr4   O20   S    
C39   C84   S    
Cr5   O29   S    
C107  H47   S    
C108  H45   S    
C87   O43   A    
C5    C6    S    
C30   C74   S    
Cr9   O33   S    
C22   H14   S    
C102  H31   S    
C29   C73   S    
C94   C98   S    
C95   C99   S    
C101  H32   S    
Cr11  O39   S    
C96   C100  S    
Cr10  O14   S    
C92   C96   S    
C47   C99   S    
C111  C112  S    
C3    C18   S    
C46   O34   A    
C104  H34   S    
Cr11  O11   S    
C55   H55   S    
C9    C13   A    
C54   H54   S    
Cr11  O19   S    
C68   H64   S    
C82   O6    A    
C48   O32   A    
C96   C107  S    
Cr1   O1    S    
Cr5   O17   S    
C115  H83   S    
C85   O41   A    
C51   H51   S    
C103  C104  S    
C62   H58   S    
C61   H57   S    
C40   C44   A    
C4    O24   A    
C43   H27   S    
C78   O46   A    
C23   C27   A    
C91   C100  S    
C75   O39   A    
C2    O26   A    
C90   C97   S    
C41   H25   S    
Cr10  O18   S    
C9    C29   A    
Cr12  O40   S    
C73   O37   A    
C52   H52   S    
C102  H29   S    
Cr8   O28   S    
Cr1   O17   S    
C44   H28   S    
C49   C69   A    
C109  C110  S    
C12   C32   A    
C37   C41   A    
C104  H35   S    
C40   C83   S    
C2    O22   A    
C15   H11   S    
C8    C95   S    
C11   C15   A    
C12   C115  S    
Cr1   O45   S    
C77   O45   A    
C36   H24   S    
C59   C78   S    
C72   C88   S    
Cr9   O17   S    
C90   C94   S    
C110  H66   S    
C84   O8    A    
C83   O11   A    
C95   C105  S    
C12   C16   A    
Cr4   O48   S    
Cr7   O27   S    
C60   C77   S    
C94   C103  S    
C111  H73   S    
C56   H56   S    
Cr6   O30   S    
C27   C31   A    
C105  C106  S    
C6    C98   S    
C7    H7    S    
C28   C32   A    
C48   C100  S    
C10   C111  S    
C113  C114  S    
C10   C14   A    
C108  H46   S    
C35   H23   S    
C91   C92   S    
C62   C66   A    
C112  H70   S    
C109  H69   S    
C107  C108  S    
C106  H39   S    
C39   C43   A    
C51   C55   A    
Cr10  O10   S    
Cr6   O18   S    
C91   C95   S    
C93   C97   S    
C89   C93   S    
C17   C21   A    
C56   C60   A    
Cr3   O3    S    
C68   C72   A    
C28   H20   S    
Cr2   O42   S    
C48   O36   A    
C19   C23   A    
C43   C44   A    
C63   C67   A    
C32   C76   S    
C52   C72   A    
C69   C85   S    
C45   O33   A    
Cr7   O7    S    
C10   C30   A    
C114  H76   S    
C31   C75   S    
C74   O38   A    
C89   H1    S    
C1    O25   A    
C16   C20   A    
C6    C93   S    
Cr5   O5    S    
Cr7   O19   S    
Cr12  O12   S    
C33   C34   A    
C80   O48   A    
Cr3   O47   S    
C11   C31   A    
Cr2   O46   S    
C86   O42   A    
C57   C61   A    
C92   H4    S    
C82   O10   A    
C46   O30   A    
C75   O3    A    
C58   C79   S    
C114  H77   S    
C83   O7    A    
C4    C17   S    
C84   O12   A    
C64   H60   S    
Cr12  O36   S    
C57   C80   S    
C26   C30   A    
C81   O5    A    
C112  H71   S    
C38   C81   S    
Cr12  O16   S    
C105  H42   S    
C104  H36   S    
Cr3   O43   S    
C37   C82   S    
C73   O1    A    
Cr6   O50   S    
C21   H13   S    
C116  H80   S    
C70   C86   S    
C64   C68   A    
Cr5   O25   S    
Cr9   O13   S    
Cr2   O22   S    
C8    H8    S    
Cr3   O19   S    
C63   H59   S    
C54   C58   A    
C34   H22   S    
C45   C97   S    
C65   C69   A    
C21   C25   A    
C110  H65   S    
C50   H50   S    
C1    C20   S    
C53   C57   A    
Cr12  O20   S    
C49   H49   S    
C2    C19   S    
C18   C22   A    
C4    O28   A    
C59   C63   A    
C36   C39   A    
C93   C101  S    
C24   C28   A    
C5    C97   S    
C115  H84   S    
C76   O40   A    
C26   H18   S    
Cr4   O24   S    
C47   O31   A    
C51   C71   A    
C79   O47   A    
Cr8   O20   S    
C87   O15   A    
C3    O23   A    
Cr2   O2    S    
C66   C70   A    
C23   H15   S    
Cr3   O23   S    
C33   C38   A    
Cr6   O6    S    
C13   C17   A    
C89   C98   S    
C60   C64   A    
C77   O49   A    
Cr8   O32   S    
C35   C40   A    
C86   O14   A    
C116  H81   S    
C101  H33   S    
C85   O13   A    
C113  H79   S    
C9    C109  S    
C25   C29   A    
C113  H78   S    
C50   C70   A    
Cr10  O34   S    
C106  H41   S    
C81   O9    A    
C76   O4    A    
Cr1   O21   S    
Cr5   O49   S    
C91   H3    S    
C115  C116  S    
C53   H53   S    
C67   C71   A    
C90   H2    S    
C61   C65   A    
C8    C100  S    
Cr1   O41   S    
C103  H38   S    
C88   O44   A    
Cr4   O4    S    
C80   O52   A    
C111  H74   S    
C1    O21   A    
Cr7   O51   S    
C38   C42   A    
C33   H21   S    
C74   O2    A    
C106  H40   S    
C101  C102  S    
C22   C26   A    
C112  H72   S    
C5    H5    S    
C24   H16   S    
Cr9   O37   S    
Cr10  O38   S    
C71   C87   S    
Cr4   O44   S    
C79   O51   A    
C88   O16   A    
C11   C113  S    
C89   C90   S    
C16   H12   S    
Cr11  O15   S    
C20   C24   A    
C47   O35   A    
C45   O29   A    
C52   C56   A    
C92   C99   S    
C6    H6    S    
C114  H75   S    
Cr8   O8    S    
Cr8   O52   S    
