data_str_m4_o1_o4_f0_acs.sym.109
_audit_creation_date              2012-12-11T14:54:19-0500
_audit_creation_method            fapswitch 2.2
_symmetry_space_group_name_H-M    P1
_symmetry_Int_Tables_number       1
_space_group_crystal_system       triclinic
_cell_length_a                    19.161761
_cell_length_b                    11.135089
_cell_length_c                    18.653594
_cell_angle_alpha                 90.199443
_cell_angle_beta                  90.190706
_cell_angle_gamma                 90.433923
_cell_volume                      3979.91779179

loop_
_atom_site_label
_atom_site_type_symbol
_atom_type_description
_atom_site_fract_x
_atom_site_fract_y
_atom_site_fract_z
_atom_type_partial_charge
C1    C     C_R   0.727704 0.372151 0.644490 0.582737
C2    C     C_R   0.268796 0.379537 0.352540 0.542644
C3    C     C_R   0.227857 0.873502 0.644867 0.583187
C4    C     C_R   0.769852 0.878323 0.352907 0.585465
C5    C     C_3   0.436940 0.365916 0.464229 0.179013
C6    C     C_3   0.431789 0.348249 0.544995 0.181425
C7    C     C_3   0.949569 0.871433 0.463849 0.177814
C8    C     C_3   0.948066 0.854118 0.544907 0.193303
C9    C     C_R   0.728661 0.865430 0.546389 -0.090783
C10   C     C_R   0.312107 0.910819 0.467429 -0.152555
C11   C     C_R   0.219393 0.372074 0.541166 -0.069033
C12   C     C_R   0.812823 0.418366 0.467997 -0.132565
C13   C     C_R   0.734703 0.832373 0.474931 0.205063
C14   C     C_R   0.305052 0.893097 0.540766 0.173653
C15   C     C_R   0.210937 0.351066 0.468696 0.191340
C16   C     C_R   0.805429 0.395977 0.540696 0.181860
C17   C     C_R   0.751532 0.919463 0.423654 0.039392
C18   C     C_R   0.238526 0.902467 0.570549 0.017401
C19   C     C_R   0.245341 0.428111 0.420820 0.059986
C20   C     C_R   0.738405 0.397081 0.569699 0.022420
C21   C     C_R   0.758652 0.041004 0.443157 0.206342
C22   C     C_R   0.178831 0.920248 0.526163 0.213722
C23   C     C_R   0.263725 0.544972 0.442572 0.236114
C24   C     C_R   0.678920 0.402567 0.524357 0.219492
C25   C     C_R   0.745590 0.073687 0.513885 -0.151723
C26   C     C_R   0.186232 0.915507 0.453039 -0.125023
C27   C     C_R   0.254148 0.575681 0.514518 -0.141918
C28   C     C_R   0.687576 0.403069 0.451304 -0.100996
C29   C     C_R   0.733926 0.985717 0.565774 -0.036999
C30   C     C_R   0.252320 0.921543 0.423610 -0.042804
C31   C     C_R   0.236262 0.487110 0.564620 -0.020495
C32   C     C_R   0.753303 0.422708 0.423543 -0.012158
C33   C     C_R   0.501020 0.053925 0.963342 -0.209421
C34   C     C_R   0.498718 0.054084 0.036455 -0.210958
C35   C     C_R   0.001050 0.553926 0.963355 -0.209587
C36   C     C_R   0.998751 0.554087 0.036468 -0.210866
C37   C     C_R   0.495900 0.162451 0.074518 0.020890
C38   C     C_R   0.504014 0.162168 0.925493 0.022599
C39   C     C_R   0.995922 0.662453 0.074530 0.021260
C40   C     C_R   0.004032 0.662168 0.925503 0.021764
C41   C     C_R   0.500181 0.272347 0.037988 0.272599
C42   C     C_R   0.499810 0.272174 0.962275 0.272139
C43   C     C_R   0.000200 0.772349 0.037999 0.272857
C44   C     C_R   0.999829 0.772175 0.962286 0.271802
C45   C     C_R   0.531772 0.153784 0.646420 0.576734
C46   C     C_R   0.467223 0.156497 0.353689 0.532791
C47   C     C_R   0.034866 0.653433 0.644662 0.569260
C48   C     C_R   0.968163 0.656496 0.353010 0.533700
C49   C     C_R   0.778360 0.066224 0.981326 0.264052
C50   C     C_R   0.222971 0.066880 0.018961 0.263665
C51   C     C_R   0.278350 0.566232 0.981330 0.264035
C52   C     C_R   0.722967 0.566873 0.018962 0.263711
C53   C     C_R   0.786451 0.036380 0.053754 -0.125577
C54   C     C_R   0.214792 0.037051 0.946443 -0.124743
C55   C     C_R   0.286441 0.536392 0.053759 -0.125559
C56   C     C_R   0.714791 0.537044 0.946443 -0.125001
C57   C     C_R   0.743739 0.947795 0.084916 -0.008851
C58   C     C_R   0.256713 0.948245 0.915161 -0.009135
C59   C     C_R   0.243733 0.447802 0.084922 -0.010028
C60   C     C_R   0.756714 0.448241 0.915162 -0.009482
C61   C     C_R   0.683230 0.912602 0.048222 -0.103304
C62   C     C_R   0.316763 0.912894 0.951882 -0.101726
C63   C     C_R   0.183224 0.412604 0.048226 -0.103679
C64   C     C_R   0.816764 0.412891 0.951882 -0.101973
C65   C     C_R   0.676139 0.938048 0.975159 -0.162149
C66   C     C_R   0.323841 0.938283 0.025041 -0.162607
C67   C     C_R   0.176137 0.438040 0.975161 -0.161869
C68   C     C_R   0.823844 0.438289 0.025041 -0.162344
C69   C     C_R   0.727114 0.007751 0.940051 0.034281
C70   C     C_R   0.273410 0.008122 0.060209 0.034206
C71   C     C_R   0.227111 0.507747 0.940052 0.034018
C72   C     C_R   0.773411 0.508124 0.060208 0.035170
C73   C     C_R   0.727603 0.019618 0.640157 0.560459
C74   C     C_R   0.259175 0.969622 0.352237 0.561847
C75   C     C_R   0.228368 0.518473 0.639795 0.553093
C76   C     C_R   0.759365 0.470157 0.352283 0.588052
C77   C     C_R   0.731415 0.383612 0.850441 0.555273
C78   C     C_R   0.268612 0.383647 0.149579 0.558192
C79   C     C_R   0.231415 0.883614 0.850441 0.555515
C80   C     C_R   0.768615 0.883642 0.149576 0.554771
C81   C     C_R   0.531586 0.156510 0.852809 0.568565
C82   C     C_R   0.468407 0.156723 0.147207 0.561691
C83   C     C_R   0.031589 0.656510 0.852812 0.571701
C84   C     C_R   0.968415 0.656724 0.147212 0.559641
C85   C     C_R   0.726620 0.023942 0.861338 0.597214
C86   C     C_R   0.273597 0.023841 0.138961 0.600920
C87   C     C_R   0.226620 0.523940 0.861339 0.599187
C88   C     C_R   0.773597 0.523841 0.138961 0.596556
C89   C     C_R   0.502821 0.169615 0.422429 -0.069965
C90   C     C_R   0.504635 0.155451 0.572979 -0.003487
C91   C     C_R   0.008329 0.669361 0.419089 -0.086619
C92   C     C_R   0.015859 0.656013 0.568919 -0.030077
C93   C     C_R   0.493070 0.272268 0.465247 -0.037764
C94   C     C_R   0.492496 0.263544 0.539265 0.006788
C95   C     C_R   0.003315 0.773416 0.461562 -0.040746
C96   C     C_R   0.005865 0.764771 0.535402 0.013114
C97   C     C_R   0.515471 0.052509 0.530180 0.265049
C98   C     C_R   0.526171 0.063991 0.455462 0.246370
C99   C     C_R   0.022845 0.551855 0.526132 0.255092
C100  C     C_R   0.032058 0.563042 0.451514 0.268093
Cr1   Cr    Cr6+3 0.771950 0.169480 0.750100 1.037552
Cr2   Cr    Cr6+3 0.228050 0.169480 0.249900 0.993748
Cr3   Cr    Cr6+3 0.271950 0.669480 0.750100 1.033978
Cr4   Cr    Cr6+3 0.728050 0.669480 0.249900 1.025263
Cr5   Cr    Cr6+3 0.614930 0.323340 0.749170 1.003710
Cr6   Cr    Cr6+3 0.385070 0.323340 0.250830 0.963224
Cr7   Cr    Cr6+3 0.114930 0.823340 0.749170 1.006315
Cr8   Cr    Cr6+3 0.885070 0.823340 0.250830 0.966618
Cr9   Cr    Cr6+3 0.616590 0.010620 0.750610 1.009123
Cr10  Cr    Cr6+3 0.383410 0.010620 0.249390 0.996816
Cr11  Cr    Cr6+3 0.116590 0.510620 0.750610 0.993525
Cr12  Cr    Cr6+3 0.883410 0.510620 0.249390 1.001256
H1    H     H_    0.828087 0.078388 0.084396 0.118939
H2    H     H_    0.173551 0.079044 0.915921 0.121298
H3    H     H_    0.328076 0.578406 0.084400 0.119149
H4    H     H_    0.673551 0.579033 0.915917 0.121476
H5    H     H_    0.643642 0.860519 0.075036 0.158926
H6    H     H_    0.355907 0.860663 0.924978 0.165157
H7    H     H_    0.143636 0.360519 0.075041 0.158544
H8    H     H_    0.855907 0.360657 0.924980 0.165043
H9    H     H_    0.632224 0.900226 0.945998 0.135091
H10   H     H_    0.367231 0.900177 0.054209 0.136759
H11   H     H_    0.132226 0.400207 0.945999 0.135087
H12   H     H_    0.867237 0.400191 0.054208 0.136795
H13   H     H_    0.898939 0.851076 0.437595 0.165592
H14   H     H_    0.966019 0.934516 0.575244 0.173245
H15   H     H_    0.388559 0.341143 0.435548 0.161439
H16   H     H_    0.445334 0.430661 0.575608 0.156324
H17   H     H_    0.716945 0.797739 0.586256 0.134956
H18   H     H_    0.364162 0.921305 0.445705 0.166514
H19   H     H_    0.199645 0.306213 0.578704 0.115304
H20   H     H_    0.864738 0.433805 0.446888 0.170647
H21   H     H_    0.744366 0.167273 0.528128 0.115284
H22   H     H_    0.140424 0.923530 0.419559 0.150429
H23   H     H_    0.258199 0.668092 0.530547 0.112159
H24   H     H_    0.642394 0.400211 0.416639 0.123476
H25   H     H_    0.503227 0.967304 0.936829 0.141979
H26   H     H_    0.496380 0.967575 0.062795 0.140299
H27   H     H_    0.003261 0.467305 0.936843 0.141837
H28   H     H_    0.996419 0.467578 0.062810 0.139996
O1    O     O_R   0.787510 0.042610 0.670410 -0.492927
O2    O     O_R   0.212490 0.042610 0.329590 -0.563559
O3    O     O_R   0.287510 0.542610 0.670410 -0.496659
O4    O     O_R   0.712490 0.542610 0.329590 -0.514788
O5    O     O_R   0.556450 0.252890 0.823790 -0.479281
O6    O     O_R   0.443550 0.252890 0.176210 -0.479397
O7    O     O_R   0.056450 0.752890 0.823790 -0.476917
O8    O     O_R   0.943550 0.752890 0.176210 -0.480813
O9    O     O_R   0.545750 0.051070 0.830560 -0.547147
O10   O     O_R   0.454250 0.051070 0.169440 -0.552168
O11   O     O_R   0.045750 0.551070 0.830560 -0.545967
O12   O     O_R   0.954250 0.551070 0.169440 -0.554220
O13   O     O_R   0.681210 0.959150 0.825320 -0.514028
O14   O     O_R   0.318790 0.959150 0.174680 -0.517026
O15   O     O_R   0.181210 0.459150 0.825320 -0.512203
O16   O     O_R   0.818790 0.459150 0.174680 -0.520277
O17   O     O_3   0.667820 0.167810 0.749960 -0.315081
O18   O     O_3   0.332180 0.167810 0.250040 -0.275914
O19   O     O_3   0.167820 0.667810 0.749960 -0.313686
O20   O     O_3   0.832180 0.667810 0.250040 -0.275043
O21   O     O_R   0.765670 0.292090 0.675090 -0.507062
O22   O     O_R   0.234330 0.292090 0.324910 -0.525563
O23   O     O_R   0.265670 0.792090 0.675090 -0.509258
O24   O     O_R   0.734330 0.792090 0.324910 -0.486369
O25   O     O_R   0.670220 0.409020 0.668560 -0.501566
O26   O     O_R   0.329780 0.409020 0.331440 -0.544062
O27   O     O_R   0.170220 0.909020 0.668560 -0.498500
O28   O     O_R   0.829780 0.909020 0.331440 -0.552343
O29   O     O_R   0.556580 0.251590 0.674980 -0.482790
O30   O     O_R   0.443420 0.251590 0.325020 -0.537937
O31   O     O_R   0.056580 0.751590 0.674980 -0.479707
O32   O     O_R   0.943420 0.751590 0.325020 -0.534774
O33   O     O_R   0.545890 0.049670 0.670030 -0.474830
O34   O     O_R   0.454110 0.049670 0.329970 -0.475644
O35   O     O_R   0.045890 0.549670 0.670030 -0.502002
O36   O     O_R   0.954110 0.549670 0.329970 -0.478768
O37   O     O_R   0.681340 0.957860 0.676500 -0.505821
O38   O     O_R   0.318660 0.957860 0.323500 -0.504644
O39   O     O_R   0.181340 0.457860 0.676500 -0.517179
O40   O     O_R   0.818660 0.457860 0.323500 -0.511238
O41   O     O_R   0.787380 0.044010 0.830940 -0.457566
O42   O     O_R   0.212620 0.044010 0.169060 -0.468413
O43   O     O_R   0.287380 0.544010 0.830940 -0.456872
O44   O     O_R   0.712620 0.544010 0.169060 -0.472876
O45   O     O_R   0.765540 0.293390 0.823910 -0.480158
O46   O     O_R   0.234460 0.293390 0.176090 -0.482768
O47   O     O_R   0.265540 0.793390 0.823910 -0.479716
O48   O     O_R   0.734460 0.793390 0.176090 -0.485784
O49   O     O_R   0.670090 0.410410 0.829090 -0.561106
O50   O     O_R   0.329910 0.410410 0.170910 -0.559477
O51   O     O_R   0.170090 0.910410 0.829090 -0.562141
O52   O     O_R   0.829910 0.910410 0.170910 -0.562378
O53   O     O_3   0.500580 0.943054 0.561644 -0.519223
C101  C     C_3   0.551282 0.857041 0.547344 -0.070791
H29   H     H_    0.601558 0.897189 0.531216 0.136031
H30   H     H_    0.531012 0.795907 0.504992 0.135233
H31   H     H_    0.560469 0.803682 0.596547 0.102739
O54   O     O_3   0.546995 0.965598 0.414791 -0.582060
C102  C     C_3   0.598850 0.001055 0.364758 -0.120341
H32   H     H_    0.628180 0.921637 0.347577 0.127894
H33   H     H_    0.635568 0.069013 0.387118 0.144479
H34   H     H_    0.576463 0.036652 0.314509 0.149848
O55   O     O_3   0.994986 0.446453 0.552813 -0.523264
C103  C     C_3   0.047126 0.362830 0.567838 -0.029934
H35   H     H_    0.098474 0.404969 0.574464 0.153069
H36   H     H_    0.046160 0.292554 0.526065 0.170056
H37   H     H_    0.035739 0.319064 0.619767 0.097919
O56   O     O_3   0.047720 0.462065 0.410732 -0.502284
C104  C     C_3   0.096604 0.492351 0.356167 -0.047214
H38   H     H_    0.120165 0.409208 0.335222 0.167530
H39   H     H_    0.138179 0.553987 0.375956 0.132235
H40   H     H_    0.072782 0.533686 0.308354 0.117259
O57   O     O_3   0.816635 0.157821 0.950496 -0.565681
C105  C     C_3   0.888406 0.133066 0.952821 -0.133098
H41   H     H_    0.899401 0.035569 0.949834 0.180710
H42   H     H_    0.911592 0.175859 0.001157 0.079603
H43   H     H_    0.913622 0.174401 0.905394 0.133147
O58   O     O_3   0.185316 0.158402 0.049919 -0.562190
C106  C     C_3   0.113525 0.131548 0.049130 -0.131817
H44   H     H_    0.102493 0.033737 0.051079 0.179568
H45   H     H_    0.089211 0.174844 0.001938 0.080582
H46   H     H_    0.089444 0.171040 0.097706 0.130848
O59   O     O_3   0.316618 0.657838 0.950503 -0.565740
C107  C     C_3   0.388388 0.633071 0.952801 -0.133214
H47   H     H_    0.399379 0.535572 0.949810 0.180618
H48   H     H_    0.411592 0.675863 0.001128 0.079766
H49   H     H_    0.413589 0.674401 0.905365 0.133397
O60   O     O_3   0.685303 0.658380 0.049928 -0.562439
C108  C     C_3   0.613506 0.631578 0.049052 -0.131933
H50   H     H_    0.602456 0.533776 0.051019 0.179472
H51   H     H_    0.589259 0.674855 0.001817 0.080651
H52   H     H_    0.589375 0.671122 0.097586 0.131179
O61   O     O_3   0.462430 0.482990 0.449495 -0.631731
C109  C     C_3   0.491300 0.491264 0.380155 -0.128780
H53   H     H_    0.451859 0.474511 0.338012 0.167629
H54   H     H_    0.535660 0.429508 0.372649 0.134774
H55   H     H_    0.511478 0.583966 0.372594 0.096906
O62   O     O_3   0.366194 0.301930 0.569075 -0.588562
C110  C     C_3   0.350631 0.182387 0.548136 -0.107771
H56   H     H_    0.372652 0.119174 0.587713 0.199089
H57   H     H_    0.367493 0.160008 0.492899 0.085029
H58   H     H_    0.293457 0.168199 0.549675 0.121661
O63   O     O_3   0.978262 0.985677 0.447400 -0.616776
C111  C     C_3   0.995139 0.993789 0.374007 -0.127678
H59   H     H_    0.949189 0.978488 0.339355 0.161057
H60   H     H_    0.037127 0.930550 0.359042 0.137160
H61   H     H_    0.014063 0.086080 0.362818 0.103039
O64   O     O_3   0.882172 0.813060 0.571925 -0.593300
C112  C     C_3   0.865488 0.690994 0.557675 -0.075977
H62   H     H_    0.889335 0.632043 0.598485 0.178782
H63   H     H_    0.878314 0.662910 0.502130 0.116361
H64   H     H_    0.809039 0.675834 0.564687 0.165370
O65   O     O_3   0.724826 0.714005 0.454906 -0.567404
C113  C     C_3   0.652383 0.695434 0.449638 -0.090736
H65   H     H_    0.630794 0.695484 0.503522 0.052378
H66   H     H_    0.639908 0.608422 0.425285 0.158693
H67   H     H_    0.625939 0.762570 0.415735 0.138854
O66   O     O_3   0.362995 0.884673 0.584889 -0.534647
C114  C     C_3   0.391424 0.768575 0.579149 -0.039331
H68   H     H_    0.353601 0.697507 0.593335 0.134319
H69   H     H_    0.434384 0.760392 0.618692 0.149550
H70   H     H_    0.413033 0.752787 0.525015 0.115161
O67   O     O_3   0.145607 0.310068 0.449669 -0.591791
C115  C     C_3   0.146370 0.190716 0.427741 -0.091801
H71   H     H_    0.195017 0.143946 0.443235 0.127985
H72   H     H_    0.134813 0.187780 0.369704 0.187505
H73   H     H_    0.101448 0.143975 0.450978 0.136794
O68   O     O_3   0.863067 0.381741 0.584374 -0.527967
C116  C     C_3   0.888204 0.263674 0.575616 -0.038613
H74   H     H_    0.846987 0.194750 0.581649 0.129293
H75   H     H_    0.926006 0.244947 0.619019 0.128865
H76   H     H_    0.914674 0.253105 0.523122 0.131551
O69   O     O_3   0.768363 0.129408 0.392021 -0.590044
C117  C     C_3   0.840323 0.154512 0.384051 -0.090837
H77   H     H_    0.873632 0.123729 0.429274 0.145197
H78   H     H_    0.848298 0.251858 0.378770 0.140632
H79   H     H_    0.858955 0.117519 0.332548 0.149364
O70   O     O_3   0.111622 0.930049 0.552744 -0.536558
C118  C     C_3   0.098029 0.048299 0.577351 -0.095595
H80   H     H_    0.052548 0.084156 0.548149 0.127408
H81   H     H_    0.143025 0.111900 0.573553 0.082908
H82   H     H_    0.080767 0.045611 0.633999 0.142352
O71   O     O_3   0.272792 0.634389 0.391926 -0.585203
C119  C     C_3   0.344331 0.660259 0.383015 -0.087268
H83   H     H_    0.376319 0.643944 0.431534 0.148114
H84   H     H_    0.350791 0.755276 0.368596 0.145533
H85   H     H_    0.364864 0.611831 0.336066 0.151838
O72   O     O_3   0.611953 0.392438 0.550539 -0.549312
C120  C     C_3   0.586657 0.506710 0.570466 -0.089251
H86   H     H_    0.557884 0.546990 0.525400 0.143814
H87   H     H_    0.627830 0.569207 0.591000 0.107420
H88   H     H_    0.549680 0.495383 0.615477 0.134038
O73   O     O_3   0.517059 0.374813 0.076542 -0.590815
C121  C     C_3   0.460047 0.453142 0.080860 -0.075843
H89   H     H_    0.450924 0.475067 0.138012 0.163979
H90   H     H_    0.410835 0.417506 0.056649 0.143155
H91   H     H_    0.474753 0.538734 0.055651 0.071736
O74   O     O_3   0.483050 0.374149 0.924029 -0.585847
C122  C     C_3   0.540394 0.453174 0.919393 -0.073143
H92   H     H_    0.549306 0.474635 0.862203 0.169754
H93   H     H_    0.589573 0.418406 0.943290 0.138223
H94   H     H_    0.526263 0.538863 0.944725 0.071596
O75   O     O_3   0.017083 0.874814 0.076553 -0.590816
C123  C     C_3   0.960070 0.953140 0.080887 -0.075985
H95   H     H_    0.950953 0.975047 0.138044 0.163588
H96   H     H_    0.910857 0.917509 0.056677 0.143349
H97   H     H_    0.974771 0.038741 0.055685 0.071628
O76   O     O_3   0.983075 0.874153 0.924040 -0.585546
C124  C     C_3   0.040419 0.953179 0.919416 -0.073140
H98   H     H_    0.049331 0.974665 0.862229 0.169431
H99   H     H_    0.089598 0.918399 0.943308 0.138103
H100  H     H_    0.026291 0.038857 0.944763 0.071511

loop_
_geom_bond_atom_site_label_1
_geom_bond_atom_site_label_2
_ccdc_geom_bond_type
C101  H30   S    
C55   C59   A    
O59   C107  S    
C100  O56   S    
Cr7   O31   S    
C6    O62   S    
Cr2   O46   S    
Cr5   O29   S    
Cr3   O43   S    
Cr6   O26   S    
C119  H83   S    
C5    C6    S    
Cr9   O33   S    
C101  H31   S    
Cr10  O38   S    
C117  H79   S    
C49   O57   S    
C111  H59   S    
C117  H77   S    
C97   O53   S    
C9    C13   A    
C113  H66   S    
C35   H27   S    
C11   C15   A    
C123  H97   S    
C12   C16   A    
C33   H25   S    
C6    C94   S    
C48   C91   S    
C46   O34   A    
C78   O46   A    
C91   C100  A    
C75   O39   A    
C124  H99   S    
C102  H32   S    
C49   C69   A    
Cr11  O39   S    
C80   O52   A    
C40   C83   S    
C109  H54   S    
O60   C108  S    
C53   H1    S    
C81   O9    A    
C25   C29   A    
Cr7   O27   S    
C27   C31   A    
Cr2   O42   S    
Cr5   O49   S    
C28   C32   A    
Cr3   O47   S    
Cr10  O10   S    
C17   C21   A    
C4    O28   A    
C67   H11   S    
C109  H55   S    
C19   C23   A    
C43   C44   A    
C108  H50   S    
C52   C72   A    
C45   O33   A    
C10   C30   A    
O75   C123  S    
C74   O38   A    
C68   C72   A    
C56   H4    S    
C45   C90   S    
C75   O3    A    
C58   C79   S    
C76   O4    A    
C8    H14   S    
C116  H75   S    
C38   C81   S    
O74   C122  S    
C1    C20   S    
C12   H20   S    
C2    C19   S    
C119  H85   S    
C114  H69   S    
Cr3   O3    S    
Cr4   O24   S    
C47   O31   A    
C57   C61   A    
C59   C63   A    
C33   C38   A    
C64   H8    S    
C111  H61   S    
C60   C64   A    
C35   C40   A    
C86   O14   A    
C66   C70   A    
C49   C53   A    
C54   H2    S    
C51   C55   A    
C36   H28   S    
C50   C70   A    
C15   O67   S    
C61   C65   A    
O53   C101  S    
Cr11  O15   S    
Cr8   O8    S    
C41   O73   S    
C47   C92   S    
Cr9   O17   S    
C2    O22   A    
C97   C98   A    
C3    O27   A    
C7    C8    S    
C46   C89   S    
C112  H62   S    
C64   C68   A    
C39   C84   S    
C108  H52   S    
C87   O43   A    
O65   C113  S    
C30   C74   S    
C105  H42   S    
C88   O44   A    
C76   O40   A    
C92   C96   A    
C115  H71   S    
C102  H34   S    
O61   C109  S    
Cr12  O40   S    
C123  H96   S    
Cr8   O28   S    
Cr6   O30   S    
C57   C80   S    
Cr1   O45   S    
C59   C78   S    
C33   C34   A    
Cr10  O34   S    
Cr4   O48   S    
C25   H21   S    
C62   C66   A    
C10   C14   A    
C51   O59   S    
C113  H67   S    
C34   H26   S    
C46   O30   A    
O73   C121  S    
C26   H22   S    
C63   H7    S    
C66   H10   S    
C104  H38   S    
C80   O48   A    
C110  H57   S    
C16   C20   A    
Cr12  O36   S    
C26   C30   A    
Cr8   O32   S    
Cr6   O50   S    
Cr1   O41   S    
C86   O42   A    
C21   C25   A    
C112  H64   S    
C85   O41   A    
C99   O55   S    
C18   C22   A    
C36   C39   A    
C24   C28   A    
C21   O69   S    
C32   C76   S    
C22   O70   S    
C23   O71   S    
C13   C17   A    
C89   C98   A    
C27   H23   S    
C119  H84   S    
O66   C114  S    
C6    H16   S    
C106  H46   S    
C115  H73   S    
C111  H60   S    
C117  H78   S    
C37   C41   A    
C122  H94   S    
Cr1   O17   S    
C40   C44   A    
C103  H35   S    
Cr12  O16   S    
Cr7   O51   S    
O71   C119  S    
O70   C118  S    
Cr8   O52   S    
C79   O51   A    
Cr2   O2    S    
C47   O35   A    
C92   C99   A    
C48   O36   A    
C58   C62   A    
C24   O72   S    
C34   C37   A    
C41   C42   A    
C110  H56   S    
C107  H47   S    
C69   C85   S    
O67   C115  S    
C73   O1    A    
O57   C105  S    
C15   C19   A    
C50   C54   A    
C51   C71   A    
C88   O16   A    
C121  H89   S    
O63   C111  S    
C104  H40   S    
Cr11  O19   S    
C120  H88   S    
C52   O60   S    
Cr5   O17   S    
O56   C104  S    
C8    C96   S    
C118  H80   S    
Cr12  O12   S    
C65   H9    S    
Cr9   O13   S    
C2    O26   A    
C90   C97   A    
Cr10  O18   S    
C3    O23   A    
C101  H29   S    
C1    O21   A    
C116  H74   S    
Cr2   O18   S    
Cr4   O20   S    
C82   O6    A    
C90   C94   A    
C83   O11   A    
C84   O8    A    
C61   H5    S    
C121  H91   S    
C14   O66   S    
C106  H44   S    
C53   C57   A    
C42   O74   S    
C43   O75   S    
C56   C60   A    
C11   H19   S    
C122  H92   S    
C10   H18   S    
C113  H65   S    
Cr7   O7    S    
C31   C75   S    
C103  H37   S    
Cr2   O22   S    
Cr5   O5    S    
C5    H15   S    
C7    H13   S    
C71   C87   S    
C4    C17   S    
Cr4   O44   S    
C37   C82   S    
C109  H53   S    
C107  H49   S    
O64   C112  S    
O62   C110  S    
C28   H24   S    
C82   O10   A    
C44   O76   S    
C77   O49   A    
C108  H51   S    
C118  H81   S    
C55   H3    S    
C65   C69   A    
Cr5   O25   S    
C67   C71   A    
C62   H6    S    
Cr9   O37   S    
O68   C116  S    
C8    O64   S    
C115  H72   S    
C22   C26   A    
C116  H76   S    
C102  H33   S    
C45   O29   A    
O55   C103  S    
C93   C94   A    
C77   O45   A    
C14   C18   A    
C95   C96   A    
C78   O50   A    
C114  H70   S    
C68   H12   S    
C124  H98   S    
C79   O47   A    
Cr11  O35   S    
C38   C42   A    
C29   C73   S    
C3    C18   S    
C118  H82   S    
C107  H48   S    
C120  H87   S    
C48   O32   A    
Cr1   O1    S    
C20   C24   A    
C4    O24   A    
O54   C102  S    
C23   C27   A    
C9    C29   A    
C73   O37   A    
C5    C93   S    
C74   O2    A    
C11   C31   A    
C5    O61   S    
C12   C32   A    
C89   C93   A    
C72   C88   S    
C63   C67   A    
C60   C77   S    
C112  H63   S    
C98   O54   S    
C105  H41   S    
C39   C43   A    
Cr6   O18   S    
C91   C95   A    
C50   O58   S    
Cr9   O9    S    
Cr10  O14   S    
C106  H45   S    
C99   C100  A    
C1    O25   A    
C13   O65   S    
Cr4   O4    S    
O69   C117  S    
C85   O13   A    
C122  H93   S    
C16   O68   S    
C83   O7    A    
C84   O12   A    
C123  H95   S    
C103  H36   S    
C81   O5    A    
C87   O15   A    
C114  H68   S    
C70   C86   S    
O76   C124  S    
C120  H86   S    
C54   C58   A    
C124  H100  S    
C105  H43   S    
Cr11  O11   S    
Cr7   O19   S    
Cr8   O20   S    
C9    H17   S    
C7    C95   S    
Cr3   O23   S    
Cr6   O6    S    
O72   C120  S    
Cr1   O21   S    
C121  H90   S    
Cr3   O19   S    
O58   C106  S    
C104  H39   S    
C110  H58   S    
Cr12  O20   S    
C7    O63   S    
C35   C36   A    
C52   C56   A    
