data_str_m2_o10_o28_f0_pcu.sym.127
_audit_creation_date              2012-12-10T16:50:08-0500
_audit_creation_method            fapswitch 2.2
_symmetry_space_group_name_H-M    P1
_symmetry_Int_Tables_number       1
_space_group_crystal_system       triclinic
_cell_length_a                    23.479035
_cell_length_b                    8.695916
_cell_length_c                    7.553244
_cell_angle_alpha                 103.715896
_cell_angle_beta                  94.068212
_cell_angle_gamma                 93.85351
_cell_volume                      1488.77783614

loop_
_atom_site_label
_atom_site_type_symbol
_atom_type_description
_atom_site_fract_x
_atom_site_fract_y
_atom_site_fract_z
_atom_type_partial_charge
C1    C     C_R   0.498214 0.199783 0.452762 0.875107
C2    C     C_R   0.501786 0.800216 0.547238 0.875105
C3    C     C_R   0.237152 0.546894 0.363689 -0.099316
C4    C     C_R   0.762844 0.453005 0.636204 -0.099302
C5    C     C_R   0.296487 0.546431 0.363740 -0.214237
C6    C     C_R   0.703509 0.453471 0.636170 -0.214267
C7    C     C_R   0.328667 0.501034 0.504166 -0.028333
C8    C     C_R   0.671331 0.498970 0.495823 -0.028325
C9    C     C_R   0.300375 0.454487 0.643076 -0.222799
C10   C     C_R   0.699623 0.545615 0.356977 -0.222824
C11   C     C_R   0.241023 0.454793 0.642735 -0.090703
C12   C     C_R   0.758974 0.545307 0.357302 -0.090686
C13   C     C_R   0.209268 0.501159 0.503224 0.350763
C14   C     C_R   0.790728 0.498839 0.496733 0.350703
C15   C     C_2   0.497491 0.031047 0.427261 -0.365747
C16   C     C_2   0.502510 0.968953 0.572739 -0.365749
C17   C     C_R   0.391192 0.499612 0.501836 0.785214
C18   C     C_R   0.608808 0.500389 0.498163 0.785209
C19   C     C_R   0.884473 0.641344 0.532641 0.533484
C20   C     C_R   0.115525 0.358654 0.467310 0.533485
C21   C     C_R   0.875995 0.357397 0.463072 0.536128
C22   C     C_R   0.124003 0.642602 0.536862 0.536131
C23   C     C_R   0.935639 0.354731 0.463391 -0.012164
C24   C     C_R   0.064358 0.645268 0.536543 -0.012169
C25   C     C_R   0.969947 0.499845 0.499416 -0.018063
C26   C     C_R   0.030051 0.500154 0.500521 -0.018061
C27   C     C_R   0.944297 0.644650 0.534363 -0.011218
C28   C     C_R   0.055700 0.355349 0.465579 -0.011224
C29   C     C_R   0.961641 0.211002 0.428202 -0.162143
C30   C     C_R   0.038356 0.788997 0.571732 -0.162145
C31   C     C_R   0.021073 0.211304 0.429277 -0.174564
C32   C     C_R   0.978924 0.788695 0.570662 -0.174562
Cu1   Cu    Cu3+1 0.506340 0.517380 0.684380 0.946011
Cu2   Cu    Cu3+1 0.493660 0.482620 0.315620 0.946009
H1    H     H_    0.936174 0.097920 0.399436 0.194341
H2    H     H_    0.063824 0.902079 0.600496 0.194343
H3    H     H_    0.212756 0.582135 0.254947 0.144948
H4    H     H_    0.787239 0.417685 0.744886 0.144991
H5    H     H_    0.317210 0.582496 0.254600 0.155019
H6    H     H_    0.682784 0.417327 0.745258 0.155027
H7    H     H_    0.323656 0.414275 0.749326 0.135951
H8    H     H_    0.676341 0.585904 0.250791 0.135956
H9    H     H_    0.219611 0.418423 0.750417 0.143110
H10   H     H_    0.780386 0.581754 0.249670 0.143157
H11   H     H_    0.492874 0.957701 0.287933 0.181364
H12   H     H_    0.507127 0.042299 0.712067 0.181364
N1    N     N_R   0.851761 0.499209 0.497402 -0.473996
N2    N     N_R   0.148237 0.500790 0.502544 -0.474006
N3    N     N_2   0.484110 0.456420 0.038520 -0.052904
N4    N     N_2   0.515890 0.543580 0.961480 -0.052901
O1    O     O_R   0.504120 0.286130 0.619770 -0.585565
O2    O     O_R   0.495880 0.713870 0.380230 -0.585565
O3    O     O_R   0.493410 0.256770 0.308360 -0.579464
O4    O     O_R   0.506590 0.743230 0.691640 -0.579466
O5    O     O_R   0.423230 0.514630 0.655730 -0.599098
O6    O     O_R   0.576770 0.485370 0.344270 -0.599101
O7    O     O_R   0.412530 0.485280 0.344320 -0.591799
O8    O     O_R   0.587470 0.514720 0.655680 -0.591792
O9    O     O_2   0.859157 0.778877 0.567187 -0.518976
O10   O     O_2   0.140842 0.221122 0.432781 -0.518957
O11   O     O_2   0.842399 0.219561 0.427546 -0.515922
O12   O     O_2   0.157599 0.780437 0.572375 -0.515899
H13   H     H_    0.039737 0.098438 0.401229 0.184947
H14   H     H_    0.960260 0.901561 0.598712 0.184948
C33   C     C_3   0.428317 0.390687 0.952581 -0.367192
H15   H     H_    0.409696 0.310763 0.031936 0.164406
H16   H     H_    0.399887 0.487937 0.956863 0.167336
H17   H     H_    0.430314 0.313622 0.815059 0.186042
C34   C     C_3   0.571683 0.609314 0.047422 -0.367191
H18   H     H_    0.590303 0.689245 0.968070 0.164406
H19   H     H_    0.569687 0.686373 0.184950 0.186036
H20   H     H_    0.600116 0.512067 0.043138 0.167353

loop_
_geom_bond_atom_site_label_1
_geom_bond_atom_site_label_2
_ccdc_geom_bond_type
Cu1   O5    S    
C13   N2    S    
C22   N2    A    
Cu2   O6    S    
Cu1   O8    S    
C1    C15   S    
C30   H2    S    
C9    H7    S    
C22   O12   S    
C31   H13   S    
C19   C27   A    
C17   O5    A    
C21   O11   S    
C3    C13   A    
C18   O6    A    
C1    O1    A    
C33   H17   S    
C7    C9    A    
C3    C5    A    
C5    H5    S    
Cu1   Cu2   S    
C27   C32   A    
C29   C31   A    
Cu1   N4    S    
C21   N1    A    
C30   C32   A    
C10   H8    S    
C9    C11   A    
C3    H3    S    
C6    H6    S    
C20   N2    A    
C2    O2    A    
Cu2   O7    S    
C10   C12   A    
C8    C10   A    
N4    C34   S    
C4    H4    S    
C33   H15   S    
C22   C24   A    
C23   C25   A    
C21   C23   A    
C4    C14   A    
C34   H18   S    
C19   N1    A    
C20   O10   S    
C24   C30   A    
Cu1   O1    S    
C15   H11   S    
C4    C6    A    
C15   C16   D    
C23   C29   A    
C12   C14   A    
C11   C13   A    
C34   H20   S    
C2    C16   S    
C1    O3    A    
C32   H14   S    
Cu2   O3    S    
C34   H19   S    
N3    N4    D    
C2    O4    A    
C16   H12   S    
Cu1   O4    S    
C5    C7    A    
C29   H1    S    
C12   H10   S    
Cu2   N3    S    
C6    C8    A    
Cu2   O2    S    
C20   C28   A    
C19   O9    S    
C25   C26   A    
N3    C33   S    
C14   N1    S    
C26   C28   A    
C11   H9    S    
C18   O8    A    
C28   C31   A    
C8    C18   S    
C24   C26   A    
C17   O7    A    
C33   H16   S    
C25   C27   A    
C7    C17   S    
