data_str_m9_o16_o17_f0_sra.sym.36
_audit_creation_date              2012-12-11T15:07:33-0500
_audit_creation_method            fapswitch 2.2
_symmetry_space_group_name_H-M    P1
_symmetry_Int_Tables_number       1
_space_group_crystal_system       triclinic
_cell_length_a                    21.410577
_cell_length_b                    7.210265
_cell_length_c                    18.955046
_cell_angle_alpha                 89.999736
_cell_angle_beta                  95.4861
_cell_angle_gamma                 89.999988
_cell_volume                      2912.79922699

loop_
_atom_site_label
_atom_site_type_symbol
_atom_type_description
_atom_site_fract_x
_atom_site_fract_y
_atom_site_fract_z
_atom_type_partial_charge
O1    O     O_R   0.449650 0.506500 0.414480 -0.512424
O2    O     O_R   0.550350 0.006500 0.585520 -0.512424
O3    O     O_R   0.432010 0.173150 0.560250 -0.534813
O4    O     O_R   0.567990 0.673150 0.439750 -0.534813
C1    C     C_R   0.416814 0.343476 0.581341 0.772988
C2    C     C_R   0.583186 0.843477 0.418659 0.772988
O5    O     O_R   0.442320 0.176650 0.413480 -0.528622
O6    O     O_R   0.557680 0.676650 0.586520 -0.528622
O7    O     O_R   0.560730 0.008380 0.437700 -0.509102
O8    O     O_R   0.439270 0.508380 0.562300 -0.509102
C3    C     C_R   0.424568 0.347756 0.391347 0.779411
C4    C     C_R   0.575432 0.847756 0.608652 0.779411
O9    O     O_3   0.538840 0.339860 0.508120 -0.361755
O10   O     O_3   0.461160 0.839860 0.491880 -0.361755
V1    V     V_3+5 0.492800 0.064220 0.498490 1.678318
V2    V     V_3+5 0.507200 0.564220 0.501510 1.678319
C5    C     C_R   0.882544 0.906976 0.691572 0.430885
C6    C     C_R   0.117456 0.406971 0.308428 0.430885
C7    C     C_R   0.889876 0.937433 0.819484 -0.194680
C8    C     C_R   0.110124 0.437431 0.180516 -0.194680
C9    C     C_R   0.588446 0.867043 0.738674 0.241582
C10   C     C_R   0.411554 0.367047 0.261326 0.241582
C11   C     C_R   0.620885 0.924142 0.801849 -0.065184
C12   C     C_R   0.379115 0.424145 0.198150 -0.065183
C13   C     C_R   0.684067 0.971445 0.805194 0.354681
C14   C     C_R   0.315933 0.471446 0.194806 0.354681
C15   C     C_R   0.718643 0.941071 0.746130 -0.007218
C16   C     C_R   0.281357 0.441071 0.253870 -0.007218
C17   C     C_R   0.683566 0.920157 0.678366 -0.096996
C18   C     C_R   0.316434 0.420157 0.321634 -0.096996
C19   C     C_R   0.786095 0.942041 0.751035 0.030910
C20   C     C_R   0.213905 0.442040 0.248965 0.030911
C21   C     C_R   0.816742 0.940257 0.687741 -0.156470
C22   C     C_R   0.183258 0.440254 0.312259 -0.156470
C23   C     C_R   0.781066 0.981813 0.623229 0.351392
C24   C     C_R   0.218934 0.481809 0.376770 0.351392
C25   C     C_R   0.714933 0.972533 0.618537 0.148456
C26   C     C_R   0.285067 0.472531 0.381463 0.148456
C27   C     C_R   0.824168 0.935153 0.816637 -0.147035
C28   C     C_R   0.175832 0.435154 0.183363 -0.147036
C29   C     C_R   0.918950 0.912918 0.757139 0.250468
C30   C     C_R   0.081050 0.412913 0.242861 0.250468
C31   C     C_R   0.617807 0.869638 0.675300 -0.134873
C32   C     C_R   0.382193 0.369639 0.324699 -0.134873
H1    H     H_    0.804131 0.921175 0.866365 0.203478
H2    H     H_    0.195869 0.421178 0.133635 0.203479
H3    H     H_    0.595283 0.946067 0.847757 0.231402
H4    H     H_    0.404716 0.446071 0.152243 0.231402
C33   C     C_R   0.612797 0.876609 0.294213 0.421584
C34   C     C_R   0.387202 0.376607 0.705787 0.421584
C35   C     C_R   0.630565 0.849346 0.366718 -0.154110
C36   C     C_R   0.369435 0.349345 0.633282 -0.154110
C37   C     C_R   0.693018 0.814272 0.389826 -0.124624
C38   C     C_R   0.306982 0.314271 0.610174 -0.124624
C39   C     C_R   0.739866 0.816238 0.342655 -0.014869
C40   C     C_R   0.260133 0.316238 0.657346 -0.014869
C41   C     C_R   0.724097 0.865465 0.270891 -0.053608
C42   C     C_R   0.275903 0.365465 0.729109 -0.053608
C43   C     C_R   0.659774 0.896670 0.245680 -0.084592
C44   C     C_R   0.340226 0.396669 0.754320 -0.084591
C45   C     C_R   0.801935 0.767152 0.366233 0.345255
C46   C     C_R   0.198065 0.267152 0.633767 0.345254
C47   C     C_R   0.850023 0.781750 0.320859 0.414395
C48   C     C_R   0.149977 0.281753 0.679142 0.414395
C49   C     C_R   0.836822 0.849043 0.249967 -0.106211
C50   C     C_R   0.163177 0.349045 0.750033 -0.106211
C51   C     C_R   0.772634 0.882960 0.224584 -0.108655
C52   C     C_R   0.227365 0.382961 0.775416 -0.108655
C53   C     C_R   0.756624 0.933295 0.152685 -0.073345
C54   C     C_R   0.243376 0.433296 0.847314 -0.073345
C55   C     C_R   0.692562 0.938597 0.126346 0.296092
C56   C     C_R   0.307438 0.438598 0.873654 0.296092
C57   C     C_R   0.645361 0.939288 0.172739 0.380919
C58   C     C_R   0.354639 0.439287 0.827260 0.380919
C59   C     C_R   0.884233 0.879276 0.202515 0.384730
C60   C     C_R   0.115767 0.379279 0.797485 0.384731
C61   C     C_R   0.867682 0.938773 0.132397 -0.227428
C62   C     C_R   0.132318 0.438775 0.867603 -0.227427
C63   C     C_R   0.804980 0.976730 0.109295 0.336309
C64   C     C_R   0.195020 0.476731 0.890704 0.336309
H5    H     H_    0.704239 0.783879 0.445463 0.191665
H6    H     H_    0.295761 0.283878 0.554537 0.191665
O11   O     O_R   0.060820 0.290050 0.937800 -0.538612
O12   O     O_R   0.939180 0.790050 0.062200 -0.538613
O13   O     O_R   0.057690 0.616620 0.086540 -0.519099
O14   O     O_R   0.942310 0.116620 0.913460 -0.519099
C65   C     C_R   0.071629 0.448058 0.111789 0.776277
C66   C     C_R   0.928371 0.948058 0.888211 0.776277
O15   O     O_R   0.068010 0.619890 0.939770 -0.512824
O16   O     O_R   0.931990 0.119890 0.060230 -0.512824
O17   O     O_R   0.949640 0.787940 0.914460 -0.537463
O18   O     O_R   0.050360 0.287940 0.085540 -0.537463
C67   C     C_R   0.083690 0.451356 0.918586 0.817072
C68   C     C_R   0.916310 0.951355 0.081414 0.817074
O19   O     O_3   0.961210 0.453080 0.991940 -0.378639
O20   O     O_3   0.038790 0.953080 0.008060 -0.378639
V3    V     V_3+5 0.007200 0.728820 0.001500 1.658583
V4    V     V_3+5 0.992800 0.228820 0.998500 1.658584
Br1   Br    Br    0.008724 0.877059 0.762341 -0.295358
Br2   Br    Br    0.991275 0.377054 0.237659 -0.295358
Cl1   Cl    Cl    0.819724 0.674270 0.452757 -0.407452
Cl2   Cl    Cl    0.180276 0.174267 0.547244 -0.407452
Cl3   Cl    Cl    0.924497 0.698713 0.356041 -0.270813
Cl4   Cl    Cl    0.075502 0.198718 0.643959 -0.270812
Cl5   Cl    Cl    0.966063 0.872552 0.228662 -0.483079
Cl6   Cl    Cl    0.033937 0.372557 0.771338 -0.483079
Cl7   Cl    Cl    0.790819 0.113202 0.031815 -0.515014
Cl8   Cl    Cl    0.209181 0.613202 0.968184 -0.515014
Br3   Br    Br    0.665748 0.895506 0.027128 -0.221255
Br4   Br    Br    0.334251 0.395507 0.972872 -0.221255
Cl9   Cl    Cl    0.570519 0.015102 0.135931 -0.346688
Cl10  Cl    Cl    0.429480 0.515103 0.864068 -0.346689
Br5   Br    Br    0.821010 0.102366 0.547468 -0.204309
Br6   Br    Br    0.178990 0.602360 0.452532 -0.204311
Cl11  Cl    Cl    0.919158 0.823865 0.617830 -0.283866
Cl12  Cl    Cl    0.080843 0.323856 0.382170 -0.283866
Br7   Br    Br    0.499700 0.827038 0.739356 -0.333309
Br8   Br    Br    0.500300 0.327043 0.260644 -0.333310
Cl13  Cl    Cl    0.709534 0.126653 0.873673 -0.474411
Cl14  Cl    Cl    0.290465 0.626655 0.126326 -0.474411
Br9   Br    Br    0.671567 0.098973 0.539375 -0.488372
Br10  Br    Br    0.328433 0.598972 0.460624 -0.488372
Cl15  Cl    Cl    0.531547 0.850582 0.267636 -0.489676
Cl16  Cl    Cl    0.468452 0.350576 0.732365 -0.489676

loop_
_geom_bond_atom_site_label_1
_geom_bond_atom_site_label_2
_ccdc_geom_bond_type
C50   C52   A    
C47   C49   A    
C15   C17   A    
O1    C3    A    
C24   Br6   S    
C2    O7    A    
O19   V4    S    
O18   V4    S    
O5    C3    A    
O12   V3    S    
C60   C62   A    
C10   C12   A    
C23   C25   A    
C12   C14   A    
C4    C31   S    
C6    C30   A    
C58   Cl10  S    
C8    C28   A    
O14   C66   A    
C41   C43   A    
C62   C67   S    
C42   C44   A    
C33   Cl15  S    
C8    C65   S    
C39   C45   A    
C61   C68   S    
C18   C26   A    
C37   H5    S    
C53   C55   A    
C9    Br7   S    
C9    C31   A    
C10   C32   A    
C40   C42   A    
C16   C18   A    
C33   C35   A    
O11   V4    S    
C34   C36   A    
C29   Br1   S    
C1    C36   S    
C57   Cl9   S    
C2    C35   S    
C43   C57   A    
C46   C48   A    
C27   H1    S    
C37   C39   A    
O2    C4    A    
O6    V2    S    
C65   O18   A    
C17   C31   A    
C18   C32   A    
C5    C21   A    
C41   C51   A    
C13   Cl13  S    
C36   C38   A    
O16   C68   A    
C38   C40   A    
O13   C65   A    
C56   Br4   S    
C11   H3    S    
C54   C64   A    
C12   H4    S    
C16   C20   A    
C34   Cl16  S    
C47   Cl3   S    
C7    C66   S    
C6    Cl12  S    
C55   C57   A    
O5    V1    S    
C49   C51   A    
C15   C19   A    
O15   V3    S    
C51   C53   A    
C48   C50   A    
O4    V2    S    
C45   Cl1   S    
C30   Br2   S    
C6    C22   A    
C66   O17   A    
O6    C4    A    
C50   C60   A    
O20   V3    S    
C19   C21   A    
C61   C63   A    
C63   Cl7   S    
C3    C32   S    
O1    V2    S    
O12   C68   A    
O17   V3    S    
O2    V1    S    
C59   C61   A    
C26   Br10  S    
C7    C27   A    
C25   Br9   S    
C56   C58   A    
C59   Cl5   S    
C9    C11   A    
C40   C46   A    
C53   C63   A    
O4    C2    A    
C28   H2    S    
C24   C26   A    
C38   H6    S    
O3    V1    S    
C5    Cl11  S    
C42   C52   A    
C10   Br8   S    
C60   Cl6   S    
C45   C47   A    
C48   Cl4   S    
C14   Cl14  S    
O3    C1    A    
C49   C59   A    
C8    C30   A    
C13   C15   A    
C64   Cl8   S    
C14   C16   A    
C33   C43   A    
C34   C44   A    
C39   C41   A    
O7    V1    S    
C1    O8    A    
O8    V2    S    
C55   Br3   S    
C44   C58   A    
C21   C23   A    
C22   C24   A    
C19   C27   A    
C23   Br5   S    
C62   C64   A    
C20   C28   A    
O15   C67   A    
O14   V4    S    
C5    C29   A    
O13   V3    S    
C11   C13   A    
C52   C54   A    
O9    V2    S    
C17   C25   A    
O10   V1    S    
C54   C56   A    
C35   C37   A    
O16   V4    S    
C7    C29   A    
C20   C22   A    
C46   Cl2   S    
O11   C67   A    
