data_str_m12_o9_o11_f0_bcu.sym.68
_audit_creation_date              2012-12-11T17:39:38-0500
_audit_creation_method            fapswitch 2.2
_symmetry_space_group_name_H-M    P1
_symmetry_Int_Tables_number       1
_space_group_crystal_system       triclinic
_cell_length_a                    14.999842
_cell_length_b                    15.252255
_cell_length_c                    15.215395
_cell_angle_alpha                 109.219634
_cell_angle_beta                  109.491828
_cell_angle_gamma                 110.105955
_cell_volume                      2666.11314827

loop_
_atom_site_label
_atom_site_type_symbol
_atom_type_description
_atom_site_fract_x
_atom_site_fract_y
_atom_site_fract_z
_atom_type_partial_charge
C1    C     C_R   0.906590 0.967354 0.719332 -0.143388
C2    C     C_R   0.996953 0.319545 0.508409 0.065248
C3    C     C_R   0.315040 0.324246 0.821895 0.127258
C4    C     C_R   0.628895 0.922188 0.427676 0.067747
C5    C     C_R   0.696167 0.703144 0.290169 0.772547
C6    C     C_R   0.257449 0.035834 0.443594 -0.226283
C7    C     C_R   0.088889 0.785718 0.582803 -0.048248
C8    C     C_R   0.906118 0.995145 0.199970 -0.149933
C9    C     C_R   0.089173 0.087292 0.287224 -0.081454
C10   C     C_R   0.904933 0.695470 0.488887 -0.106936
C11   C     C_R   0.700720 0.793673 0.200930 -0.234922
C12   C     C_R   0.090803 0.312785 0.537859 -0.157681
C13   C     C_R   0.263116 0.949207 0.537284 0.704584
C14   C     C_R   0.635442 0.702884 0.198409 -0.031231
C15   C     C_R   0.293545 0.967865 0.464484 -0.103602
C16   C     C_R   0.994883 0.690393 0.541285 -0.014153
C17   C     C_R   0.994307 0.045646 0.191610 0.062126
C18   C     C_R   0.496079 0.596205 0.423757 -0.024571
C19   C     C_R   0.477780 0.668612 0.393805 -0.109416
C20   C     C_R   0.475594 0.753749 0.464192 0.068383
C21   C     C_R   0.491674 0.764977 0.564778 -0.159589
C22   C     C_R   0.510288 0.692643 0.594410 -0.114330
C23   C     C_R   0.276398 0.222782 0.811808 -0.124133
C24   C     C_R   0.512393 0.608254 0.523907 -0.139987
C25   C     C_R   0.372675 0.848371 0.442352 -0.191899
C26   C     C_R   0.354328 0.925443 0.421330 0.087838
C27   C     C_R   0.398276 0.960791 0.362214 0.089933
C28   C     C_R   0.467428 0.930077 0.338844 -0.241889
C29   C     C_R   0.511899 0.883793 0.391448 0.053051
C30   C     C_R   0.454475 0.829627 0.432146 0.008281
C31   C     C_R   0.289964 0.995544 0.231940 -0.334041
C32   C     C_R   0.266468 0.066765 0.205924 0.791183
C33   C     C_R   0.337904 0.178579 0.274307 -0.285125
C34   C     C_R   0.693569 0.988366 0.401731 -0.132049
C35   C     C_R   0.435106 0.218669 0.367550 -0.166504
C36   C     C_R   0.457830 0.147159 0.395258 -0.153399
C37   C     C_R   0.382631 0.035760 0.328960 0.022927
C38   C     C_R   0.831562 0.183889 0.156559 -0.114054
C39   C     C_R   0.898690 0.273292 0.260830 -0.108948
C40   C     C_R   0.851341 0.313819 0.316889 0.086574
C41   C     C_R   0.736281 0.263974 0.267104 -0.127955
C42   C     C_R   0.669605 0.173480 0.163573 -0.049068
C43   C     C_R   0.717242 0.133471 0.108324 -0.128196
C44   C     C_R   0.919622 0.501885 0.440525 -0.211883
C45   C     C_R   0.273313 0.312434 0.720526 -0.113384
C46   C     C_R   0.989000 0.595803 0.540840 0.062150
C47   C     C_R   0.058239 0.598944 0.632230 0.082509
C48   C     C_R   0.060843 0.506002 0.618724 -0.245604
C49   C     C_R   0.993620 0.413101 0.517229 0.061941
C50   C     C_R   0.921514 0.409579 0.426956 0.006264
C51   C     C_R   0.236079 0.736599 0.806376 -0.144382
C52   C     C_R   0.297160 0.829715 0.907846 -0.191679
C53   C     C_R   0.246166 0.882002 0.945182 -0.258052
C54   C     C_R   0.133764 0.840573 0.881452 0.835322
C55   C     C_R   0.072569 0.747640 0.780441 -0.337431
C56   C     C_R   0.696191 0.901846 0.494548 -0.132672
C57   C     C_R   0.123360 0.695542 0.741370 0.037166
C58   C     C_2   0.388050 0.516100 0.929358 -0.135364
C59   C     C_2   0.388758 0.425962 0.921573 -0.181203
C60   C     C_2   0.473522 0.620842 0.024987 -0.154690
C61   C     C_2   0.520014 0.627405 0.120313 -0.124472
C62   C     C_R   0.375353 0.267012 0.104615 0.631471
C63   C     C_R   0.266506 0.189554 0.059481 -0.441024
C64   C     C_R   0.184873 0.217597 0.047589 0.054065
C65   C     C_R   0.215200 0.326082 0.085320 -0.231215
C66   C     C_R   0.325255 0.404456 0.133519 -0.418262
C67   C     C_R   0.905669 0.218876 0.453012 -0.109611
C68   C     C_R   0.405312 0.374655 0.143441 0.640944
C69   C     C_R   0.065063 0.142164 0.109608 -0.190748
C70   C     C_R   0.984758 0.051160 0.097099 0.103294
C71   C     C_R   0.902314 0.961443 0.994000 0.084955
C72   C     C_R   0.904429 0.965018 0.905977 -0.169875
C73   C     C_R   0.993393 0.049184 0.918513 0.101098
C74   C     C_R   0.076349 0.138448 0.021927 0.144780
C75   C     C_R   0.857534 0.793906 0.007855 -0.242700
C76   C     C_R   0.781176 0.695076 0.987919 0.803772
C77   C     C_R   0.668721 0.657661 0.932322 -0.246587
C78   C     C_R   0.089971 0.048097 0.810936 -0.065813
C79   C     C_R   0.632431 0.719017 0.896647 -0.232811
C80   C     C_R   0.708497 0.818215 0.917044 -0.203275
C81   C     C_R   0.821673 0.856873 0.973844 0.036649
C82   C     C_R   0.998635 0.031920 0.821835 0.073928
H1    H     H_    0.821332 0.936165 0.697447 0.100453
H2    H     H_    0.264626 0.070025 0.393864 0.160749
H3    H     H_    0.171910 0.810850 0.637933 0.179747
H4    H     H_    0.821110 0.968254 0.148571 0.111244
H5    H     H_    0.171772 0.145583 0.313968 0.091048
H6    H     H_    0.819442 0.638419 0.456040 0.176599
H7    H     H_    0.674933 0.826413 0.150779 0.135632
H8    H     H_    0.526757 0.552241 0.546896 0.115563
H9    H     H_    0.498090 0.530888 0.369711 0.182815
H10   H     H_    0.466586 0.659512 0.316667 0.131175
H11   H     H_    0.173849 0.376431 0.572596 0.097479
H12   H     H_    0.490863 0.830311 0.620639 0.148485
H13   H     H_    0.523010 0.702004 0.672015 0.119796
H14   H     H_    0.327051 0.805211 0.470763 0.195545
H15   H     H_    0.498938 0.958615 0.293313 0.129491
H16   H     H_    0.232391 0.909484 0.180333 0.173819
H17   H     H_    0.317108 0.234604 0.257660 0.137449
H18   H     H_    0.490605 0.304862 0.419990 0.147477
H19   H     H_    0.530980 0.178182 0.469786 0.137179
H20   H     H_    0.665626 0.063772 0.027928 0.112623
H21   H     H_    0.302826 0.205112 0.875607 0.110706
H22   H     H_    0.867972 0.153872 0.112780 0.109117
H23   H     H_    0.987193 0.311300 0.297513 0.110073
H24   H     H_    0.698433 0.294400 0.309092 0.149723
H25   H     H_    0.581041 0.134558 0.126065 0.163292
H26   H     H_    0.868285 0.502024 0.370628 0.162821
H27   H     H_    0.112696 0.504736 0.687395 0.133360
H28   H     H_    0.276932 0.697738 0.777833 0.119650
H29   H     H_    0.384162 0.861699 0.957255 0.141026
H30   H     H_    0.293878 0.954420 0.023342 0.161656
H31   H     H_    0.666356 0.010649 0.341831 0.090498
H32   H     H_    0.985497 0.716493 0.732332 0.159138
H33   H     H_    0.332968 0.514937 0.860556 0.125932
H34   H     H_    0.445828 0.426304 0.988255 0.178840
H35   H     H_    0.509447 0.686729 0.011766 0.136041
H36   H     H_    0.478717 0.563787 0.132676 0.199146
H37   H     H_    0.246266 0.107072 0.034330 0.248690
H38   H     H_    0.154780 0.350341 0.082023 0.162866
H39   H     H_    0.347615 0.487987 0.165448 0.172132
H40   H     H_    0.296349 0.374836 0.700108 0.087079
H41   H     H_    0.127723 0.210133 0.189683 0.113056
H42   H     H_    0.842926 0.893768 0.827808 0.131905
H43   H     H_    0.944487 0.821886 0.050284 0.191683
H44   H     H_    0.609636 0.581056 0.916698 0.164500
H45   H     H_    0.545313 0.689737 0.853289 0.139931
H46   H     H_    0.679463 0.865216 0.889265 0.125718
H47   H     H_    0.673975 0.846333 0.522708 0.134694
H48   H     H_    0.819865 0.195299 0.415119 0.104387
H49   H     H_    0.172104 0.079071 0.868771 0.112337
N1    N     N_R   0.941940 0.944580 0.650780 -0.041798
N2    N     N_R   0.206190 0.054080 0.497260 -0.076787
N3    N     N_R   0.056380 0.847410 0.553580 -0.056052
N4    N     N_R   0.944890 0.999100 0.292900 -0.032891
N5    N     N_R   0.058060 0.055420 0.349220 -0.045548
N6    N     N_R   0.943200 0.791100 0.497260 -0.049832
N7    N     N_R   0.795540 0.849750 0.292910 -0.074379
N8    N     N_R   0.205730 0.996760 0.553580 -0.102438
N9    N     N_R   0.056800 0.208900 0.502740 -0.039786
N10   N     N_R   0.204460 0.150250 0.707090 -0.049930
N11   N     N_R   0.794270 0.003240 0.446420 -0.044395
N12   N     N_R   0.204920 0.207570 0.650770 -0.045273
N13   N     N_R   0.793810 0.945920 0.502740 -0.049599
N14   N     N_R   0.943620 0.152590 0.446420 -0.041951
N15   N     N_R   0.055110 0.000900 0.707100 -0.056646
N16   N     N_R   0.795080 0.792430 0.349230 -0.117392
Ni1   Ni    Ni4+2 0.869690 0.869690 0.500000 0.252637
Ni2   Ni    Ni4+2 0.130310 0.130310 0.500000 0.205735
Ni3   Ni    Ni4+2 0.129250 0.998840 0.629170 0.247632
Ni4   Ni    Ni4+2 0.870750 0.001160 0.370830 0.205066
F1    F     F_    0.296953 0.903995 0.594380 -0.759785
F2    F     F_    0.170034 0.025617 0.118010 -0.697950
F3    F     F_    0.083358 0.890135 0.916770 -0.683837
F4    F     F_    0.512706 0.449223 0.193067 -0.661672
F5    F     F_    0.452587 0.237981 0.115109 -0.690643
F6    F     F_    0.816215 0.635369 0.022289 -0.694422
F7    F     F_    0.654278 0.644718 0.331296 -0.704697

loop_
_geom_bond_atom_site_label_1
_geom_bond_atom_site_label_2
_ccdc_geom_bond_type
C28   H15   S    
C66   C68   A    
C79   C80   A    
C40   C41   A    
C5    N16   A    
C73   C74   A    
C54   C55   A    
N6    Ni1   S    
C3    C23   A    
C35   C36   A    
N13   Ni1   S    
C68   F4    S    
C2    C12   A    
N3    N6    A    
N5    Ni2   S    
N4    N5    A    
C20   C30   S    
C53   C54   A    
C34   H31   S    
C10   H6    S    
C26   C27   A    
C29   C30   A    
C18   C24   A    
C18   H9    S    
C13   N8    A    
C36   C37   A    
C11   N7    A    
C6    N2    A    
N10   N12   A    
C38   C39   A    
C11   C14   A    
N4    Ni4   S    
C21   H12   S    
C69   H41   S    
C58   C60   S    
N3    Ni3   S    
C31   C32   A    
C18   C19   A    
C41   C42   A    
C31   H16   S    
C49   C50   A    
C78   C82   A    
C38   H22   S    
C19   H10   S    
C6    C15   A    
N15   Ni3   S    
C23   H21   S    
N16   Ni1   S    
C59   H34   S    
C67   N14   A    
C12   N9    A    
C70   C71   A    
C51   C57   A    
C10   N6    A    
C42   H25   S    
C8    H4    S    
C56   H47   S    
C72   C73   A    
C1    N1    A    
C44   H26   S    
C48   H27   S    
C17   C70   S    
C21   C22   A    
C4    C56   A    
C8    N4    A    
C44   C46   A    
N10   Ni3   S    
C77   C79   A    
C4    C34   A    
C76   F6    S    
C6    H2    S    
C41   H24   S    
C51   C52   A    
N1    Ni1   S    
C69   C74   A    
N2    Ni2   S    
C76   C77   A    
C7    N3    A    
C2    C67   A    
C16   C46   S    
C39   C40   A    
C75   C81   A    
C15   C26   S    
C22   H13   S    
C80   H46   S    
C52   H29   S    
C25   C26   A    
C14   C61   S    
C3    C45   A    
C32   F2    S    
C60   C61   D    
C75   H43   S    
N11   Ni4   S    
C75   C76   A    
C62   C63   A    
C2    C49   S    
C47   C57   S    
C63   H37   S    
C11   H7    S    
C47   C48   A    
N7    N16   A    
C66   H39   S    
C60   H35   S    
C5    C14   A    
N14   Ni4   S    
C53   H30   S    
C9    C17   A    
C48   C49   A    
N2    N8    A    
C51   H28   S    
C13   C15   A    
C58   H33   S    
N7    Ni4   S    
C22   C24   A    
C12   H11   S    
C58   C59   D    
C67   H48   S    
C42   C43   A    
C35   H18   S    
C28   C29   A    
C73   C82   S    
C52   C53   A    
C44   C50   A    
C25   C30   A    
C39   H23   S    
C79   H45   S    
C46   C47   A    
C34   N11   A    
C61   H36   S    
C78   H49   S    
C7    C16   A    
C4    C29   S    
C13   F1    S    
C80   C81   A    
C24   H8    S    
N9    N14   A    
C54   F3    S    
C55   H32   S    
C45   H40   S    
C1    H1    S    
N8    Ni3   S    
C8    C17   A    
C62   C68   A    
N1    N15   A    
C64   C65   A    
C19   C20   A    
C55   C57   A    
C1    C82   A    
C43   H20   S    
C38   C43   A    
C10   C16   A    
C32   C33   A    
C7    H3    S    
C27   C37   S    
C40   C50   S    
C33   C35   A    
C65   H38   S    
C62   F5    S    
N11   N13   A    
C65   C66   A    
C69   C70   A    
C78   N15   A    
C63   C64   A    
C56   N13   A    
C9    N5    A    
C31   C37   A    
N12   Ni2   S    
C71   C72   A    
C20   C21   A    
C25   H14   S    
C5    F7    S    
C23   N10   A    
C27   C28   A    
C45   N12   A    
C64   C74   S    
C36   H19   S    
C33   H17   S    
N9    Ni2   S    
C72   H42   S    
C77   H44   S    
C3    C59   S    
C71   C81   S    
C9    H5    S    
