data_str_m4_o22_o22_f0_acs.sym.98
_audit_creation_date              2012-12-11T15:07:12-0500
_audit_creation_method            fapswitch 2.2
_symmetry_space_group_name_H-M    P1
_symmetry_Int_Tables_number       1
_space_group_crystal_system       triclinic
_cell_length_a                    19.641401
_cell_length_b                    11.412217
_cell_length_c                    18.703012
_cell_angle_alpha                 89.999965
_cell_angle_beta                  90.035019
_cell_angle_gamma                 90.0
_cell_volume                      4192.31546097

loop_
_atom_site_label
_atom_site_type_symbol
_atom_type_description
_atom_site_fract_x
_atom_site_fract_y
_atom_site_fract_z
_atom_type_partial_charge
C1    C     C_R   0.762188 0.519155 0.637756 0.566217
C2    C     C_R   0.237811 0.519154 0.362244 0.566216
C3    C     C_R   0.262188 0.019155 0.637756 0.566217
C4    C     C_R   0.737811 0.019154 0.362244 0.566216
C5    C     C_3   0.808175 0.128842 0.449879 -0.267361
C6    C     C_3   0.191825 0.128842 0.550121 -0.267361
C7    C     C_3   0.308175 0.628842 0.449879 -0.267361
C8    C     C_3   0.691825 0.628842 0.550121 -0.267361
C9    C     C_3   0.746721 0.049489 0.438768 0.039212
C10   C     C_3   0.253279 0.049489 0.561232 0.039212
C11   C     C_3   0.246721 0.549489 0.438768 0.039212
C12   C     C_3   0.753279 0.549489 0.561232 0.039212
C13   C     C_3   0.759984 0.087167 0.575834 0.044077
C14   C     C_3   0.240015 0.087167 0.424166 0.044077
C15   C     C_3   0.259984 0.587167 0.575834 0.044077
C16   C     C_3   0.740015 0.587167 0.424166 0.044077
C17   C     C_3   0.753368 0.954232 0.564570 -0.068120
C18   C     C_3   0.246632 0.954232 0.435430 -0.068120
C19   C     C_3   0.253368 0.454232 0.564570 -0.068120
C20   C     C_3   0.746632 0.454232 0.435430 -0.068120
C21   C     C_3   0.821643 0.132562 0.530310 -0.240466
C22   C     C_3   0.178357 0.132562 0.469689 -0.240466
C23   C     C_3   0.321643 0.632562 0.530310 -0.240466
C24   C     C_3   0.678357 0.632563 0.469689 -0.240466
C25   C     C_3   0.003772 0.202172 0.458777 -0.225434
C26   C     C_3   0.996227 0.202172 0.541223 -0.225434
C27   C     C_3   0.503773 0.702172 0.458777 -0.225434
C28   C     C_3   0.496227 0.702172 0.541223 -0.225434
C29   C     C_3   0.064127 0.400674 0.473976 -0.221534
C30   C     C_3   0.935873 0.400674 0.526024 -0.221534
C31   C     C_3   0.564126 0.900674 0.473976 -0.221534
C32   C     C_3   0.435873 0.900674 0.526024 -0.221534
C33   C     C_3   0.940825 0.385005 0.444943 -0.267366
C34   C     C_3   0.059174 0.385005 0.555057 -0.267366
C35   C     C_3   0.440825 0.885005 0.444943 -0.267366
C36   C     C_3   0.559174 0.885005 0.555057 -0.267366
C37   C     C_3   0.009936 0.329755 0.430669 0.057975
C38   C     C_3   0.990064 0.329755 0.569331 0.057975
C39   C     C_3   0.509936 0.829755 0.430669 0.057975
C40   C     C_3   0.490064 0.829755 0.569331 0.057975
C41   C     C_3   0.819389 0.026418 0.046530 -0.235354
C42   C     C_3   0.180611 0.026418 0.953470 -0.235354
C43   C     C_3   0.319389 0.526418 0.046530 -0.235354
C44   C     C_3   0.680611 0.526418 0.953470 -0.235354
C45   C     C_R   0.774074 0.120995 0.650113 0.560195
C46   C     C_R   0.225926 0.120995 0.349887 0.560195
C47   C     C_R   0.274074 0.620995 0.650113 0.560195
C48   C     C_R   0.725926 0.620995 0.349887 0.560195
C49   C     C_3   0.818633 0.022941 0.965788 -0.234367
C50   C     C_3   0.181366 0.022941 0.034212 -0.234367
C51   C     C_3   0.318633 0.522941 0.965788 -0.234367
C52   C     C_3   0.681366 0.522941 0.034212 -0.234367
C53   C     C_3   0.691229 0.015469 0.031563 -0.226983
C54   C     C_3   0.308771 0.015469 0.968437 -0.226983
C55   C     C_3   0.191229 0.515469 0.031563 -0.226983
C56   C     C_3   0.808771 0.515469 0.968437 -0.226983
C57   C     C_3   0.744545 0.201621 0.061160 -0.252383
C58   C     C_3   0.255455 0.201621 0.938840 -0.252383
C59   C     C_3   0.244545 0.701621 0.061160 -0.252383
C60   C     C_3   0.755455 0.701621 0.938840 -0.252383
C61   C     C_3   0.749140 0.071128 0.075442 0.061078
C62   C     C_3   0.250860 0.071128 0.924558 0.061078
C63   C     C_3   0.249139 0.571128 0.075442 0.061078
C64   C     C_3   0.750860 0.571128 0.924558 0.061078
C65   C     C_3   0.760685 0.103879 0.936122 0.060674
C66   C     C_3   0.239315 0.103879 0.063877 0.060674
C67   C     C_3   0.260685 0.603879 0.936122 0.060674
C68   C     C_3   0.739315 0.603880 0.063877 0.060674
C69   C     C_3   0.693633 0.042399 0.950387 -0.252065
C70   C     C_3   0.306367 0.042399 0.049613 -0.252065
C71   C     C_3   0.193633 0.542399 0.950387 -0.252065
C72   C     C_3   0.806366 0.542399 0.049613 -0.252065
C73   C     C_3   0.758003 0.218782 0.980253 -0.233723
C74   C     C_3   0.241997 0.218783 0.019746 -0.233723
C75   C     C_3   0.258003 0.718782 0.980253 -0.233723
C76   C     C_3   0.741997 0.718782 0.019746 -0.233723
C77   C     C_3   0.998614 0.479566 0.040656 -0.235956
C78   C     C_3   0.001385 0.479566 0.959344 -0.235956
C79   C     C_3   0.498614 0.979566 0.040656 -0.235956
C80   C     C_3   0.501385 0.979566 0.959344 -0.235956
C81   C     C_3   0.067596 0.292843 0.025955 -0.229754
C82   C     C_3   0.932404 0.292843 0.974044 -0.229754
C83   C     C_3   0.567596 0.792843 0.025955 -0.229754
C84   C     C_3   0.432404 0.792843 0.974044 -0.229754
C85   C     C_3   0.946904 0.281506 0.054801 -0.254671
C86   C     C_3   0.053096 0.281505 0.945199 -0.254671
C87   C     C_3   0.446904 0.781506 0.054801 -0.254671
C88   C     C_3   0.553096 0.781505 0.945199 -0.254671
C89   C     C_R   0.969427 0.341634 0.645327 0.535715
C90   C     C_R   0.030573 0.341634 0.354673 0.535716
C91   C     C_R   0.469427 0.841634 0.645327 0.535715
C92   C     C_R   0.530573 0.841634 0.354673 0.535716
C93   C     C_3   0.010474 0.352365 0.069502 0.063111
C94   C     C_3   0.989526 0.352365 0.930498 0.063111
C95   C     C_3   0.510474 0.852365 0.069502 0.063111
C96   C     C_3   0.489526 0.852365 0.930498 0.063111
C97   C     C_R   0.759922 0.534844 0.848203 0.543046
C98   C     C_R   0.240078 0.534844 0.151797 0.543046
C99   C     C_R   0.259922 0.034844 0.848203 0.543046
C100  C     C_R   0.740078 0.034844 0.151797 0.543046
C101  C     C_R   0.774248 0.132718 0.858878 0.540001
C102  C     C_R   0.225752 0.132718 0.141121 0.540000
C103  C     C_R   0.274248 0.632718 0.858878 0.540001
C104  C     C_R   0.725751 0.632718 0.141121 0.540000
C105  C     C_R   0.968124 0.353540 0.853960 0.535944
C106  C     C_R   0.031876 0.353540 0.146039 0.535945
C107  C     C_R   0.468124 0.853540 0.853960 0.535944
C108  C     C_R   0.531876 0.853540 0.146039 0.535945
C109  C     C_3   0.685203 0.116592 0.468856 -0.244971
C110  C     C_3   0.314797 0.116592 0.531144 -0.244972
C111  C     C_3   0.185203 0.616591 0.468856 -0.244971
C112  C     C_3   0.814797 0.616592 0.531144 -0.244972
C113  C     C_3   0.692309 0.139822 0.548646 -0.259901
C114  C     C_3   0.307690 0.139822 0.451354 -0.259901
C115  C     C_3   0.192309 0.639822 0.548646 -0.259901
C116  C     C_3   0.807690 0.639822 0.451354 -0.259901
C117  C     C_3   0.759639 0.933773 0.482818 -0.238791
C118  C     C_3   0.240361 0.933773 0.517182 -0.238791
C119  C     C_3   0.259639 0.433773 0.482818 -0.238791
C120  C     C_3   0.740361 0.433773 0.517182 -0.238791
Cr1   Cr    Cr6+3 0.885690 0.492860 0.745310 1.005402
Cr2   Cr    Cr6+3 0.114310 0.492860 0.254690 1.005402
Cr3   Cr    Cr6+3 0.385690 0.992860 0.745310 1.005402
Cr4   Cr    Cr6+3 0.614310 0.992860 0.254690 1.005402
Cr5   Cr    Cr6+3 0.729880 0.332270 0.748190 1.004851
Cr6   Cr    Cr6+3 0.270120 0.332270 0.251810 1.004851
Cr7   Cr    Cr6+3 0.229880 0.832270 0.748190 1.004851
Cr8   Cr    Cr6+3 0.770120 0.832270 0.251810 1.004851
Cr9   Cr    Cr6+3 0.888120 0.178590 0.753010 1.025966
Cr10  Cr    Cr6+3 0.111880 0.178590 0.246990 1.025967
Cr11  Cr    Cr6+3 0.388120 0.678590 0.753010 1.025966
Cr12  Cr    Cr6+3 0.611880 0.678590 0.246990 1.025967
H1    H     H_    0.638936 0.072614 0.457114 0.129879
H2    H     H_    0.361063 0.072614 0.542886 0.129880
H3    H     H_    0.138936 0.572614 0.457114 0.129879
H4    H     H_    0.861063 0.572614 0.542886 0.129880
H5    H     H_    0.863594 0.070709 0.539158 0.181538
H6    H     H_    0.136406 0.070709 0.460842 0.181538
H7    H     H_    0.363594 0.570709 0.539158 0.181538
H8    H     H_    0.636406 0.570709 0.460842 0.181538
H9    H     H_    0.812688 0.906707 0.471282 0.156617
H10   H     H_    0.187312 0.906707 0.528718 0.156617
H11   H     H_    0.312688 0.406707 0.471282 0.156617
H12   H     H_    0.687312 0.406707 0.528718 0.156617
H13   H     H_    0.046498 0.149161 0.441596 0.146335
H14   H     H_    0.953501 0.149161 0.558404 0.146335
H15   H     H_    0.546498 0.649161 0.441596 0.146335
H16   H     H_    0.453501 0.649161 0.558404 0.146335
H17   H     H_    0.959300 0.158128 0.434311 0.116392
H18   H     H_    0.040700 0.158128 0.565689 0.116392
H19   H     H_    0.459300 0.658128 0.434311 0.116392
H20   H     H_    0.540700 0.658128 0.565689 0.116392
H21   H     H_    0.616107 0.885390 0.454840 0.108090
H22   H     H_    0.383893 0.885390 0.545160 0.108090
H23   H     H_    0.116107 0.385389 0.454840 0.108090
H24   H     H_    0.883893 0.385390 0.545160 0.108090
H25   H     H_    0.600881 0.828710 0.575372 0.112419
H26   H     H_    0.399119 0.828710 0.424628 0.112419
H27   H     H_    0.100881 0.328710 0.575372 0.112419
H28   H     H_    0.899119 0.328710 0.424628 0.112419
H29   H     H_    0.936377 0.471206 0.417815 0.128103
H30   H     H_    0.063623 0.471206 0.582185 0.128103
H31   H     H_    0.436377 0.971206 0.417815 0.128103
H32   H     H_    0.563623 0.971206 0.582185 0.128103
H33   H     H_    0.950009 0.493318 0.535794 0.142955
H34   H     H_    0.049991 0.493317 0.464206 0.142956
H35   H     H_    0.450009 0.993317 0.535794 0.142955
H36   H     H_    0.549991 0.993317 0.464206 0.142956
H37   H     H_    0.834556 0.937955 0.064653 0.139682
H38   H     H_    0.165444 0.937955 0.935347 0.139682
H39   H     H_    0.334556 0.437955 0.064653 0.139682
H40   H     H_    0.665444 0.437955 0.935347 0.139682
H41   H     H_    0.678735 0.198377 0.441196 0.186499
H42   H     H_    0.321264 0.198377 0.558804 0.186499
H43   H     H_    0.178735 0.698377 0.441196 0.186499
H44   H     H_    0.821264 0.698377 0.558804 0.186499
H45   H     H_    0.860074 0.085592 0.065747 0.117123
H46   H     H_    0.139926 0.085592 0.934253 0.117124
H47   H     H_    0.360074 0.585592 0.065747 0.117123
H48   H     H_    0.639926 0.585592 0.934253 0.117124
H49   H     H_    0.870594 0.044158 0.947627 0.135093
H50   H     H_    0.129406 0.044158 0.052373 0.135093
H51   H     H_    0.370594 0.544158 0.947627 0.135093
H52   H     H_    0.629406 0.544158 0.052373 0.135093
H53   H     H_    0.809822 0.932015 0.947103 0.119694
H54   H     H_    0.190178 0.932015 0.052897 0.119694
H55   H     H_    0.309822 0.432015 0.947103 0.119694
H56   H     H_    0.690178 0.432015 0.052897 0.119694
H57   H     H_    0.700569 0.924317 0.039565 0.107578
H58   H     H_    0.299431 0.924317 0.960435 0.107578
H59   H     H_    0.200569 0.424317 0.039565 0.107578
H60   H     H_    0.799431 0.424317 0.960435 0.107578
H61   H     H_    0.689355 0.960507 0.918581 0.106553
H62   H     H_    0.310645 0.960507 0.081419 0.106553
H63   H     H_    0.189355 0.460507 0.918581 0.106553
H64   H     H_    0.810645 0.460507 0.081419 0.106553
H65   H     H_    0.693023 0.234435 0.075541 0.122983
H66   H     H_    0.306977 0.234435 0.924458 0.122983
H67   H     H_    0.193023 0.734435 0.075541 0.122983
H68   H     H_    0.806977 0.734435 0.924458 0.122983
H69   H     H_    0.782462 0.250297 0.093823 0.107977
H70   H     H_    0.217538 0.250297 0.906177 0.107977
H71   H     H_    0.282462 0.750297 0.093823 0.107977
H72   H     H_    0.717538 0.750297 0.906177 0.107977
H73   H     H_    0.808488 0.251407 0.976225 0.108931
H74   H     H_    0.191512 0.251407 0.023775 0.108932
H75   H     H_    0.308488 0.751407 0.976225 0.108931
H76   H     H_    0.691512 0.751407 0.023775 0.108932
H77   H     H_    0.720383 0.279843 0.957448 0.125521
H78   H     H_    0.279617 0.279843 0.042551 0.125521
H79   H     H_    0.220383 0.779842 0.957448 0.125521
H80   H     H_    0.779617 0.779843 0.042551 0.125521
H81   H     H_    0.641516 0.041329 0.053396 0.130373
H82   H     H_    0.358484 0.041329 0.946604 0.130373
H83   H     H_    0.141516 0.541329 0.053396 0.130373
H84   H     H_    0.858484 0.541329 0.946604 0.130373
H85   H     H_    0.689279 0.233434 0.559414 0.150583
H86   H     H_    0.310721 0.233434 0.440585 0.150583
H87   H     H_    0.189279 0.733434 0.559414 0.150583
H88   H     H_    0.810721 0.733434 0.440585 0.150583
H89   H     H_    0.651063 0.101406 0.935099 0.120257
H90   H     H_    0.348937 0.101406 0.064901 0.120257
H91   H     H_    0.151063 0.601406 0.935099 0.120257
H92   H     H_    0.848937 0.601406 0.064901 0.120257
H93   H     H_    0.034973 0.545838 0.060268 0.134572
H94   H     H_    0.965027 0.545838 0.939732 0.134572
H95   H     H_    0.534973 0.045838 0.060268 0.134572
H96   H     H_    0.465027 0.045838 0.939732 0.134572
H97   H     H_    0.948270 0.510724 0.058943 0.118012
H98   H     H_    0.051730 0.510724 0.941057 0.118012
H99   H     H_    0.448270 0.010724 0.058943 0.118012
H100  H     H_    0.551730 0.010724 0.941057 0.118012
H101  H     H_    0.608593 0.852439 0.032023 0.108099
H102  H     H_    0.391407 0.852439 0.967977 0.108099
H103  H     H_    0.108593 0.352439 0.032023 0.108099
H104  H     H_    0.891407 0.352439 0.967977 0.108099
H105  H     H_    0.596762 0.814128 0.913093 0.103930
H106  H     H_    0.403238 0.814128 0.086906 0.103930
H107  H     H_    0.096762 0.314128 0.913093 0.103930
H108  H     H_    0.903238 0.314128 0.086906 0.103930
H109  H     H_    0.956082 0.188332 0.069168 0.122270
H110  H     H_    0.043917 0.188332 0.930832 0.122270
H111  H     H_    0.456082 0.688332 0.069168 0.122270
H112  H     H_    0.543918 0.688332 0.930832 0.122270
H113  H     H_    0.919891 0.206483 0.951723 0.133608
H114  H     H_    0.080109 0.206483 0.048277 0.133608
H115  H     H_    0.419891 0.706483 0.951723 0.133608
H116  H     H_    0.580109 0.706483 0.048277 0.133608
H117  H     H_    0.648463 0.102008 0.577951 0.115181
H118  H     H_    0.351537 0.102008 0.422048 0.115181
H119  H     H_    0.148463 0.602008 0.577951 0.115181
H120  H     H_    0.851537 0.602008 0.422048 0.115181
H121  H     H_    0.725443 0.863705 0.465801 0.086491
H122  H     H_    0.274557 0.863705 0.534199 0.086492
H123  H     H_    0.225443 0.363705 0.465801 0.086491
H124  H     H_    0.774557 0.363705 0.534199 0.086492
H125  H     H_    0.701900 0.926025 0.581729 0.098571
H126  H     H_    0.298100 0.926025 0.418271 0.098571
H127  H     H_    0.201900 0.426024 0.581729 0.098571
H128  H     H_    0.798100 0.426024 0.418271 0.098571
H129  H     H_    0.853223 0.093518 0.421256 0.133415
H130  H     H_    0.146777 0.093518 0.578744 0.133414
H131  H     H_    0.353223 0.593518 0.421256 0.133415
H132  H     H_    0.646777 0.593518 0.578744 0.133414
H133  H     H_    0.798538 0.217959 0.428989 0.147715
H134  H     H_    0.201461 0.217959 0.571011 0.147715
H135  H     H_    0.298538 0.717959 0.428989 0.147715
H136  H     H_    0.701461 0.717959 0.571011 0.147715
H137  H     H_    0.839584 0.218489 0.547643 0.103121
H138  H     H_    0.160416 0.218489 0.452357 0.103121
H139  H     H_    0.339584 0.718489 0.547643 0.103121
H140  H     H_    0.660416 0.718489 0.452357 0.103121
O1    O     O_R   0.957210 0.449410 0.665480 -0.526368
O2    O     O_R   0.042790 0.449410 0.334520 -0.526368
O3    O     O_R   0.457210 0.949410 0.665480 -0.526368
O4    O     O_R   0.542790 0.949410 0.334520 -0.526368
O5    O     O_R   0.736260 0.212010 0.826560 -0.511446
O6    O     O_R   0.263740 0.212010 0.173440 -0.511445
O7    O     O_R   0.236260 0.712010 0.826560 -0.511446
O8    O     O_R   0.763740 0.712010 0.173440 -0.511445
O9    O     O_R   0.832520 0.095300 0.836000 -0.528566
O10   O     O_R   0.167480 0.095300 0.164000 -0.528566
O11   O     O_R   0.332520 0.595300 0.836000 -0.528566
O12   O     O_R   0.667480 0.595300 0.164000 -0.528566
O13   O     O_R   0.946380 0.253940 0.826940 -0.514854
O14   O     O_R   0.053620 0.253940 0.173060 -0.514854
O15   O     O_R   0.446380 0.753940 0.826940 -0.514854
O16   O     O_R   0.553620 0.753940 0.173060 -0.514854
O17   O     O_3   0.834560 0.334570 0.748840 -0.288325
O18   O     O_3   0.165440 0.334570 0.251160 -0.288325
O19   O     O_3   0.334560 0.834570 0.748840 -0.288325
O20   O     O_3   0.665440 0.834570 0.251160 -0.288325
O21   O     O_R   0.820730 0.541240 0.668250 -0.509325
O22   O     O_R   0.179270 0.541240 0.331750 -0.509325
O23   O     O_R   0.320730 0.041240 0.668250 -0.509325
O24   O     O_R   0.679270 0.041240 0.331750 -0.509325
O25   O     O_R   0.714240 0.455060 0.663710 -0.526225
O26   O     O_R   0.285760 0.455060 0.336290 -0.526225
O27   O     O_R   0.214240 0.955060 0.663710 -0.526225
O28   O     O_R   0.785760 0.955060 0.336290 -0.526225
O29   O     O_R   0.736780 0.204870 0.675910 -0.523965
O30   O     O_R   0.263220 0.204870 0.324090 -0.523964
O31   O     O_R   0.236780 0.704870 0.675910 -0.523965
O32   O     O_R   0.763220 0.704870 0.324090 -0.523964
O33   O     O_R   0.833070 0.087590 0.673490 -0.476220
O34   O     O_R   0.166930 0.087590 0.326510 -0.476220
O35   O     O_R   0.333070 0.587590 0.673490 -0.476220
O36   O     O_R   0.666930 0.587590 0.326510 -0.476220
O37   O     O_R   0.946890 0.246800 0.676300 -0.510364
O38   O     O_R   0.053110 0.246800 0.323700 -0.510364
O39   O     O_R   0.446890 0.746800 0.676300 -0.510364
O40   O     O_R   0.553110 0.746800 0.323700 -0.510364
O41   O     O_R   0.956650 0.457120 0.827980 -0.530860
O42   O     O_R   0.043350 0.457120 0.172020 -0.530860
O43   O     O_R   0.456650 0.957120 0.827980 -0.530860
O44   O     O_R   0.543350 0.957120 0.172020 -0.530860
O45   O     O_R   0.820220 0.548390 0.818890 -0.511482
O46   O     O_R   0.179780 0.548390 0.181110 -0.511482
O47   O     O_R   0.320220 0.048390 0.818890 -0.511482
O48   O     O_R   0.679780 0.048390 0.181110 -0.511482
O49   O     O_R   0.713680 0.462770 0.826210 -0.530337
O50   O     O_R   0.286320 0.462770 0.173790 -0.530336
O51   O     O_R   0.213680 0.962770 0.826210 -0.530337
O52   O     O_R   0.786320 0.962770 0.173790 -0.530336
C121  C     C_2   0.802690 0.884155 0.609877 0.536916
O53   O     O_2   0.863850 0.884882 0.597233 -0.542727
O54   O     O_R   0.777891 0.821823 0.668765 -0.717016
H141  H     H_    0.815366 0.780976 0.696492 0.350742
C122  C     C_2   0.197310 0.884155 0.390123 0.536916
O55   O     O_2   0.136150 0.884882 0.402767 -0.542727
O56   O     O_R   0.222108 0.821823 0.331235 -0.717016
H142  H     H_    0.184634 0.780976 0.303508 0.350742
C123  C     C_2   0.302690 0.384155 0.609877 0.536916
O57   O     O_2   0.363850 0.384882 0.597233 -0.542727
O58   O     O_R   0.277892 0.321823 0.668765 -0.717016
H143  H     H_    0.315366 0.280976 0.696492 0.350742
C124  C     C_2   0.697310 0.384155 0.390123 0.536916
O59   O     O_2   0.636150 0.384882 0.402767 -0.542727
O60   O     O_R   0.722108 0.321823 0.331235 -0.717016
H144  H     H_    0.684634 0.280976 0.303508 0.350742

loop_
_geom_bond_atom_site_label_1
_geom_bond_atom_site_label_2
_ccdc_geom_bond_type
C78   H94   S    
C5    H133  S    
C82   C94   S    
C119  H11   S    
C120  H12   S    
C21   H5    S    
C53   C69   S    
C104  O8    A    
C56   H60   S    
C124  O59   D    
C43   C63   S    
C123  O57   D    
C44   C64   S    
Cr6   O6    S    
C102  O10   A    
C84   H115  S    
C16   C20   S    
C112  H4    S    
C63   C98   S    
C51   H51   S    
Cr2   O2    S    
C19   H127  S    
C109  H41   S    
C28   C40   S    
C72   H92   S    
C30   C38   S    
C19   C123  S    
C113  H85   S    
C42   H38   S    
Cr9   O33   S    
C56   C72   S    
C45   O33   A    
C8    H132  S    
C18   C118  S    
C81   C86   S    
C29   H23   S    
C30   H24   S    
C83   C88   S    
C87   H106  S    
C5    H129  S    
C41   C49   S    
Cr8   O28   S    
Cr1   O45   S    
Cr2   O42   S    
Cr3   O47   S    
Cr4   O48   S    
C26   C38   S    
Cr10  O34   S    
C14   C114  S    
Cr11  O39   S    
C60   C76   S    
C35   H31   S    
Cr8   O52   S    
C55   H59   S    
C29   H34   S    
C33   H29   S    
C44   H40   S    
C88   H112  S    
C54   C70   S    
C48   O36   A    
C68   C72   S    
C23   H139  S    
C69   H61   S    
C13   C21   S    
C99   O47   A    
C79   H99   S    
C32   H22   S    
C64   C97   S    
C15   C115  S    
C20   C120  S    
C1    O25   A    
C54   H82   S    
C43   H39   S    
C57   H65   S    
C59   C63   S    
C52   H52   S    
Cr4   O20   S    
C72   H64   S    
C57   C61   S    
C82   C85   S    
Cr6   O50   S    
C77   H97   S    
Cr11  O19   S    
C60   C64   S    
Cr9   O13   S    
C13   C45   S    
C102  O6    A    
C42   H46   S    
C69   H89   S    
C95   C108  S    
C60   H68   S    
O58   H143  S    
C107  O43   A    
C5    C21   S    
C58   H70   S    
C79   H95   S    
C31   C36   S    
C47   O35   A    
C4    O28   A    
C97   O45   A    
Cr5   O17   S    
C90   O38   A    
Cr1   O21   S    
C84   H102  S    
Cr2   O18   S    
C65   C101  S    
Cr10  O14   S    
Cr3   O23   S    
Cr11  O11   S    
C67   C103  S    
C66   C70   S    
Cr5   O5    S    
C37   C90   S    
C24   H140  S    
C41   H45   S    
C78   C94   S    
C55   H83   S    
C115  H119  S    
C66   C74   S    
C113  H117  S    
C25   H17   S    
C57   C73   S    
C121  O54   S    
C53   C61   S    
C60   H72   S    
C83   H101  S    
C55   C63   S    
C6    H134  S    
C56   C64   S    
C7    H131  S    
Cr7   O51   S    
C116  H88   S    
C42   C62   S    
C33   H28   S    
Cr5   O29   S    
C34   H27   S    
C76   H80   S    
C122  O56   S    
C50   H50   S    
C1    C12   S    
C75   H75   S    
C80   H100  S    
C2    C11   S    
Cr3   O3    S    
C110  H42   S    
C6    H130  S    
Cr9   O37   S    
C25   C26   S    
C105  O13   A    
C62   C99   S    
C107  O15   A    
C5    C9    S    
C108  O16   A    
C93   C106  S    
C71   H63   S    
C8    C12   S    
C90   O2    A    
C51   C67   S    
C43   H47   S    
C7    H135  S    
C36   H25   S    
C42   C50   S    
C49   H49   S    
C112  H44   S    
Cr2   O46   S    
Cr3   O43   S    
C110  H2    S    
C61   C100  S    
C67   C75   S    
C17   H125  S    
C50   H54   S    
C112  C116  S    
C58   C74   S    
Cr10  O38   S    
Cr11  O35   S    
C53   H81   S    
C54   H58   S    
C81   H114  S    
C30   H33   S    
C34   H30   S    
C68   C76   S    
C1    O21   A    
C98   O46   A    
C85   H108  S    
C14   C22   S    
C3    O23   A    
C20   C124  S    
C27   C39   S    
C7    C23   S    
C8    C24   S    
C40   C91   S    
C101  O9    A    
C56   H84   S    
Cr7   O27   S    
C76   H76   S    
Cr8   O20   S    
C114  H86   S    
C49   H53   S    
C57   H69   S    
C52   H56   S    
Cr7   O7    S    
C4    C9    S    
Cr4   O24   S    
C53   H57   S    
Cr8   O8    S    
C86   H110  S    
C58   C62   S    
C89   O1    A    
C88   C96   S    
C94   C105  S    
C77   H93   S    
C82   H104  S    
C12   C112  S    
C44   H48   S    
C21   H137  S    
C14   C46   S    
C77   C78   S    
C15   C19   S    
C75   H79   S    
C101  O5    A    
C92   O40   A    
C6    C22   S    
C2    O22   A    
C73   H73   S    
Cr6   O18   S    
Cr2   O22   S    
C103  O7    A    
Cr3   O19   S    
C46   O34   A    
C82   H113  S    
C17   C117  S    
C19   C119  S    
Cr12  O36   S    
C16   C116  S    
C124  O60   S    
C123  O58   S    
C9    C109  S    
C28   H16   S    
C11   C111  S    
C26   H18   S    
C105  O41   A    
C54   C62   S    
C48   O32   A    
C109  H1    S    
C29   C34   S    
C108  O44   A    
C33   C37   S    
C41   C61   S    
C79   C95   S    
C35   C39   S    
O56   H142  S    
C17   C121  S    
Cr5   O25   S    
O60   H144  S    
Cr6   O30   S    
C70   H62   S    
C85   H109  S    
C86   H107  S    
C80   H96   S    
Cr12  O12   S    
C96   C107  S    
C100  O52   A    
C39   C92   S    
C73   H77   S    
C27   H19   S    
C106  O14   A    
C14   C18   S    
C68   C104  S    
C119  H123  S    
C6    C10   S    
C13   C17   S    
C78   H98   S    
C22   H6    S    
Cr5   O49   S    
C91   O3    A    
C35   H26   S    
O54   H141  S    
C104  O12   A    
C43   C51   S    
C41   H37   S    
C65   C69   S    
C77   C93   S    
C70   H90   S    
C10   C110  S    
C67   C71   S    
C121  O53   D    
C111  H3    S    
Cr1   O1    S    
C18   H126  S    
C51   H55   S    
C3    O27   A    
C59   H71   S    
C31   H36   S    
C32   H35   S    
C29   C37   S    
C36   H32   S    
C9    C117  S    
C122  O55   D    
C66   C102  S    
C117  H9    S    
C84   C87   S    
C15   C47   S    
C8    H136  S    
C11   C119  S    
C16   C48   S    
C7    C11   S    
C38   C89   S    
C49   C65   S    
C74   H78   S    
C111  H43   S    
C23   H7    S    
C18   C122  S    
Cr7   O31   S    
Cr8   O32   S    
Cr1   O41   S    
C114  H118  S    
C65   C73   S    
C26   H14   S    
C84   C96   S    
Cr4   O44   S    
C86   C94   S    
C25   C37   S    
C12   C120  S    
C59   H67   S    
C83   H116  S    
Cr12  O20   S    
C55   C71   S    
C80   C96   S    
C118  H122  S    
C52   C68   S    
C109  C113  S    
C22   H138  S    
C15   C23   S    
Cr9   O17   S    
C16   C24   S    
C115  H87   S    
C85   C93   S    
C2    O26   A    
C103  O11   A    
C31   H21   S    
C71   H91   S    
C117  H121  S    
C120  H124  S    
C32   C35   S    
C36   C40   S    
C97   O49   A    
Cr7   O19   S    
C116  H120  S    
C87   C95   S    
C46   O30   A    
C10   C118  S    
C99   O51   A    
C81   C93   S    
C87   H111  S    
C83   C95   S    
Cr10  O18   S    
C81   H103  S    
Cr12  O40   S    
Cr9   O9    S    
C50   C66   S    
C100  O48   A    
C20   H128  S    
C28   H20   S    
C45   O29   A    
C92   O4    A    
C24   H8    S    
C59   C75   S    
C106  O42   A    
C74   H74   S    
C110  C114  S    
C58   H66   S    
C30   C33   S    
C34   C38   S    
C47   O31   A    
C4    O24   A    
C118  H10   S    
C89   O37   A    
C111  C115  S    
Cr6   O26   S    
C91   O39   A    
Cr1   O17   S    
Cr10  O10   S    
C3    C10   S    
Cr11  O15   S    
Cr4   O4    S    
C44   C52   S    
Cr12  O16   S    
C88   H105  S    
C31   C39   S    
C32   C40   S    
C79   C80   S    
C98   O50   A    
C27   H15   S    
C27   C28   S    
C25   H13   S    
C13   C113  S    
