data_str_m9_o16_o24_f0_sra.sym.74
_audit_creation_date              2012-12-11T15:13:49-0500
_audit_creation_method            fapswitch 2.2
_symmetry_space_group_name_H-M    P1
_symmetry_Int_Tables_number       1
_space_group_crystal_system       triclinic
_cell_length_a                    6.943937
_cell_length_b                    13.491449
_cell_length_c                    20.117851
_cell_angle_alpha                 104.130497
_cell_angle_beta                  89.964782
_cell_angle_gamma                 90.560753
_cell_volume                      1827.59822238

loop_
_atom_site_label
_atom_site_type_symbol
_atom_type_description
_atom_site_fract_x
_atom_site_fract_y
_atom_site_fract_z
_atom_type_partial_charge
O1    O     O_R   0.506780 0.600060 0.449950 -0.538273
O2    O     O_R   0.179840 0.597110 0.589410 -0.542561
O3    O     O_R   0.004570 0.399940 0.550050 -0.533524
C1    C     C_R   0.348321 0.618856 0.617008 0.674178
O4    O     O_R   0.177380 0.612160 0.452890 -0.541177
O5    O     O_R   0.002100 0.415100 0.412560 -0.540209
C2    C     C_R   0.346657 0.638959 0.436324 0.696874
O6    O     O_R   0.509250 0.584900 0.587440 -0.542633
O7    O     O_3   0.337570 0.435330 0.486930 -0.369637
V1    V     V_3+5 0.064650 0.512000 0.502430 1.419773
O8    O     O_R   0.672090 0.402890 0.410590 -0.543393
C3    C     C_R   0.840321 0.381005 0.383062 0.677673
O9    O     O_R   0.674540 0.387840 0.547110 -0.546592
C4    C     C_R   0.842695 0.361478 0.564105 0.697303
V2    V     V_3+5 0.564040 0.488000 0.497570 1.409990
O10   O     O_3   0.840990 0.564670 0.513070 -0.369726
C5    C     C_R   0.907862 0.110883 0.609744 -0.172217
H1    H     H_    0.920281 0.163040 0.517428 0.122124
H2    H     H_    0.903771 0.983091 0.691454 0.113809
H3    H     H_    0.933276 0.032158 0.582853 0.125141
C6    C     C_R   0.850472 0.285457 0.604997 -0.139195
C7    C     C_R   0.874756 0.322936 0.934822 0.258784
C8    C     C_R   0.909749 0.397439 0.898734 -0.230265
C9    C     C_R   0.924787 0.371968 0.827269 0.297438
C10   C     C_R   0.881000 0.270529 0.789363 0.050320
C11   C     C_R   0.870263 0.192512 0.825785 -0.032649
C12   C     C_R   0.865224 0.242434 0.716204 0.057789
C13   C     C_R   0.889460 0.138511 0.681236 0.073345
C14   C     C_R   0.892237 0.063076 0.717907 -0.195108
C15   C     C_R   0.873541 0.089187 0.788802 -0.159196
C16   C     C_R   0.819075 0.313110 0.676791 0.338844
C17   C     C_R   0.897873 0.184916 0.572372 -0.221171
C18   C     C_R   0.865580 0.219190 0.898494 -0.154353
H4    H     H_    0.938477 0.475420 0.927032 0.132884
H5    H     H_    0.869410 0.027397 0.814465 0.113449
C19   C     C_3   0.782204 0.157814 0.250815 -0.142636
C20   C     C_3   0.958016 0.209210 0.293522 -0.138593
H6    H     H_    0.041784 0.176118 0.329728 0.101294
H7    H     H_    0.721270 0.081507 0.250955 0.111638
C21   C     C_3   0.848194 0.310781 0.312396 -0.007166
C22   C     C_3   0.672145 0.260144 0.270504 -0.122790
C23   C     C_3   0.754909 0.290253 0.206552 -0.141070
C24   C     C_3   0.930761 0.341666 0.249220 -0.138950
C25   C     C_3   0.040803 0.239310 0.229560 -0.116382
C26   C     C_3   0.864738 0.188750 0.187676 -0.002151
H8    H     H_    0.519889 0.268815 0.287650 0.106532
H9    H     H_    0.670455 0.322919 0.170348 0.103182
H10   H     H_    0.992127 0.417870 0.248943 0.102137
H11   H     H_    0.193020 0.230467 0.212380 0.106026
C27   C     C_3   0.443504 0.797684 0.705666 -0.141414
C28   C     C_3   0.263102 0.837466 0.749176 -0.147448
H12   H     H_    0.185598 0.909037 0.749329 0.108585
H13   H     H_    0.515179 0.835599 0.668994 0.101546
C29   C     C_3   0.359220 0.812707 0.811985 -0.004702
C30   C     C_3   0.540102 0.773938 0.769343 -0.105929
C31   C     C_3   0.451381 0.664975 0.750479 -0.157858
C32   C     C_3   0.270910 0.704652 0.793896 -0.143171
C33   C     C_3   0.174131 0.728443 0.730281 -0.108938
C34   C     C_3   0.354941 0.689423 0.687574 -0.008857
H14   H     H_    0.691502 0.793038 0.785663 0.106682
H15   H     H_    0.530641 0.594235 0.751074 0.131172
H16   H     H_    0.200306 0.667633 0.831177 0.101061
H17   H     H_    0.022658 0.709393 0.714057 0.113049
C35   C     C_R   0.385204 0.892775 0.391961 -0.161701
H18   H     H_    0.381812 0.843263 0.485525 0.101235
H19   H     H_    0.401580 0.018609 0.309497 0.117845
H20   H     H_    0.399359 0.972622 0.418742 0.112615
C36   C     C_R   0.357059 0.716305 0.396788 -0.030978
C37   C     C_R   0.335801 0.680649 0.066955 -0.172708
C38   C     C_R   0.323146 0.604043 0.102034 -0.118195
C39   C     C_R   0.330705 0.628109 0.173405 -0.162038
C40   C     C_R   0.350641 0.730816 0.211903 0.078081
C41   C     C_R   0.362710 0.809090 0.175500 0.071066
C42   C     C_R   0.358492 0.758512 0.285145 0.072643
C43   C     C_R   0.377137 0.863455 0.320063 0.146328
C44   C     C_R   0.387706 0.938524 0.283173 -0.218548
C45   C     C_R   0.380963 0.911987 0.212109 -0.204064
C46   C     C_R   0.348650 0.685846 0.325234 -0.217759
C47   C     C_R   0.375297 0.819531 0.430082 -0.177518
C48   C     C_R   0.355622 0.782796 0.102920 -0.074528
H21   H     H_    0.334833 0.604986 0.302763 0.090760
H22   H     H_    0.329629 0.660263 0.011436 0.098676
H23   H     H_    0.319900 0.564368 0.196644 0.103299
H24   H     H_    0.307088 0.525136 0.073669 0.129464
H25   H     H_    0.390070 0.973275 0.186075 0.119427
O11   O     O_R   0.203580 0.914920 0.912610 -0.540783
O12   O     O_R   0.535710 0.887810 0.047120 -0.540173
O13   O     O_R   0.710730 0.084950 0.087430 -0.539922
C49   C     C_R   0.366423 0.860806 0.063567 0.689781
O14   O     O_R   0.533010 0.902850 0.910600 -0.545554
O15   O     O_R   0.708010 0.100090 0.949930 -0.536635
C50   C     C_R   0.364816 0.881986 0.882809 0.679555
O16   O     O_R   0.206300 0.899780 0.050100 -0.537433
O17   O     O_3   0.375170 0.064580 0.013100 -0.369460
V3    V     V_3+5 0.648200 0.988020 0.997570 1.415455
O18   O     O_R   0.038030 0.112330 0.952840 -0.543238
C51   C     C_R   0.869869 0.139124 0.936422 0.707147
O19   O     O_R   0.040730 0.097300 0.089360 -0.545202
C52   C     C_R   0.872536 0.118854 0.116963 0.674042
V4    V     V_3+5 0.148780 0.012220 0.002360 1.413762
O20   O     O_3   0.871930 0.935430 0.986900 -0.370073
O21   O     O_3   0.729284 0.403388 0.708828 -0.647679
H26   H     H_    0.696604 0.443497 0.675468 0.277284
N1    N     N_2   0.868380 0.353198 0.007990 -0.517395
H27   H     H_    0.895934 0.297310 0.033535 0.240447
C53   C     C_3   0.705804 0.415838 0.036191 -0.551056
H28   H     H_    0.720186 0.440737 0.092800 0.192586
H29   H     H_    0.569595 0.371329 0.023385 0.191369
H30   H     H_    0.699958 0.485459 0.016106 0.208155
N2    N     N_2   0.007202 0.445685 0.795290 -0.484360
H31   H     H_    0.986929 0.520671 0.821517 0.247318
C54   C     C_3   0.203578 0.425505 0.772101 -0.515182
H32   H     H_    0.244190 0.477413 0.739263 0.197166
H33   H     H_    0.219092 0.345847 0.740916 0.203077
H34   H     H_    0.302914 0.438559 0.816755 0.190907

loop_
_geom_bond_atom_site_label_1
_geom_bond_atom_site_label_2
_ccdc_geom_bond_type
C25   H11   S    
C30   C31   S    
H18   C47   S    
C22   C23   S    
C1    O6    A    
C54   H33   S    
C32   H16   S    
C6    C16   A    
C14   C15   A    
C15   H5    S    
C27   C34   S    
C4    C6    S    
C19   C20   S    
C20   C21   S    
O5    C3    A    
C53   H28   S    
V2    O10   S    
C5    H3    S    
C7    N1    S    
C31   C32   S    
C48   C49   S    
N2    H31   S    
N1    H27   S    
C37   H22   S    
C2    C36   S    
O8    V2    S    
C35   C43   A    
C21   C24   S    
O17   V3    S    
O12   V3    S    
C22   H8    S    
C38   C39   A    
O1    V2    S    
C38   H24   S    
C24   H10   S    
C36   C47   A    
O13   V3    S    
C45   H25   S    
C30   H14   S    
C49   O16   A    
C19   C22   S    
O21   H26   S    
N1    C53   S    
C54   H32   S    
C39   H23   S    
C36   C46   A    
C6    C17   A    
C27   H13   S    
C42   C43   A    
C12   C16   A    
C28   H12   S    
C35   H20   S    
O14   V3    S    
C9    N2    S    
C9    C10   A    
C40   C42   A    
C26   C52   S    
O4    C2    A    
C10   C11   A    
O15   C51   A    
C23   C26   S    
C3    C21   S    
O2    C1    A    
C43   C44   A    
C16   O21   S    
C29   C50   S    
C20   H6    S    
C11   C18   A    
O14   C50   A    
O17   V4    S    
C8    C9    A    
C8    H4    S    
H19   C44   S    
O18   C51   A    
C27   C28   S    
C19   C26   S    
C31   H15   S    
C28   C33   S    
C44   C45   A    
O16   V4    S    
O3    C4    A    
C21   C22   S    
C11   C15   A    
O6    V2    S    
O19   V4    S    
O12   C49   A    
C24   C25   S    
C35   C47   A    
H1    C17   S    
C23   C24   S    
O2    V1    S    
O11   V4    S    
C25   C26   S    
O7    V1    S    
C33   H17   S    
C7    C18   A    
C29   C30   S    
C13   C14   A    
O1    C2    A    
C5    C13   A    
C19   H7    S    
C40   C41   A    
O5    V1    S    
O8    C3    A    
C10   C12   A    
C27   C30   S    
C31   C34   S    
C28   C29   S    
C20   C25   S    
O9    V2    S    
C33   C34   S    
O4    V1    S    
O3    V1    S    
O11   C50   A    
C46   H21   S    
C32   C33   S    
C53   H29   S    
O18   V4    S    
C1    C34   S    
V4    O20   S    
C41   C48   A    
C18   C51   S    
C23   H9    S    
O7    V2    S    
C37   C38   A    
N2    C54   S    
O13   C52   A    
O15   V3    S    
C39   C40   A    
O19   C52   A    
C42   C46   A    
C12   C13   A    
C5    C17   A    
C41   C45   A    
C7    C8    A    
C37   C48   A    
V1    O10   S    
O9    C4    A    
C29   C32   S    
C54   H34   S    
V3    O20   S    
C53   H30   S    
H2    C14   S    
