data_str_m2_o4_o9_f0_pcu.sym.21
_audit_creation_date              2012-10-26T19:00:09-0400
_audit_creation_method            fapswitch 2.2
_symmetry_space_group_name_H-M    P1
_symmetry_Int_Tables_number       1
_space_group_crystal_system       triclinic
_cell_length_a                    10.965993
_cell_length_b                    11.035594
_cell_length_c                    9.635882
_cell_angle_alpha                 91.975935
_cell_angle_beta                  91.626898
_cell_angle_gamma                 91.399089
_cell_volume                      1164.55867418

loop_
_atom_site_label
_atom_site_type_symbol
_atom_type_description
_atom_site_fract_x
_atom_site_fract_y
_atom_site_fract_z
_atom_type_partial_charge
C1    C     C_R   0.498463 0.262809 0.497569 0.560965
C2    C     C_R   0.928541 0.714575 0.963982 -0.111226
C3    C     C_R   0.876425 0.628939 0.047837 -0.109596
C4    C     C_R   0.262585 0.504969 0.497677 0.559807
C5    C     C_R   0.837736 0.516481 0.990615 -0.127527
C6    C     C_R   0.851363 0.488437 0.849508 -0.048893
C7    C     C_R   0.900027 0.575940 0.763080 0.053188
C8    C     C_R   0.433747 0.066880 0.595037 0.000134
C9    C     C_R   0.491534 0.129541 0.490395 0.005166
C10   C     C_R   0.550831 0.061230 0.385975 -0.053949
C11   C     C_R   0.549606 0.933589 0.389085 -0.176376
C12   C     C_R   0.200802 0.534783 0.968880 -0.114200
C13   C     C_R   0.503814 0.872329 0.503288 -0.014380
C14   C     C_R   0.451032 0.943035 0.608419 0.004404
C15   C     C_3   0.483344 0.964370 0.761477 -0.131491
C16   C     C_R   0.502311 0.738000 0.502096 0.536311
C17   C     C_3   0.444367 0.093718 0.747410 -0.255083
C18   C     C_R   0.574278 0.577478 0.078374 0.164750
C19   C     C_R   0.440641 0.411349 0.068954 -0.016120
C20   C     C_R   0.442788 0.410009 0.920414 -0.035880
C21   C     C_R   0.574394 0.576247 0.932128 0.154490
C22   C     C_3   0.577078 0.707654 0.927511 -0.268743
C23   C     C_R   0.930206 0.483723 0.379196 -0.156654
C24   C     C_3   0.575179 0.711962 0.085013 -0.283245
C25   C     C_R   0.737782 0.501783 0.502286 0.543910
C26   C     C_R   0.206099 0.632216 0.064812 -0.126076
C27   C     C_R   0.157593 0.619187 0.195326 -0.059853
C28   C     C_R   0.107217 0.506988 0.231809 0.029291
C29   C     C_R   0.102146 0.409266 0.135356 -0.104565
C30   C     C_R   0.146810 0.422731 0.001841 0.060397
C31   C     C_R   0.638645 0.120048 0.294852 0.041089
C32   C     C_R   0.600073 0.170004 0.169802 -0.054118
C33   C     C_R   0.685210 0.225563 0.085546 -0.096728
C34   C     C_R   0.872125 0.505353 0.505383 -0.007709
C35   C     C_R   0.809152 0.228209 0.124279 -0.112608
C36   C     C_R   0.847585 0.181071 0.250211 -0.121211
C37   C     C_R   0.762659 0.127674 0.335575 -0.105914
C38   C     C_R   0.618603 0.965974 0.805099 0.035847
C39   C     C_R   0.713509 0.985035 0.711765 -0.082392
C40   C     C_R   0.834738 0.997827 0.759086 -0.122784
C41   C     C_R   0.863497 0.989904 0.899953 -0.100232
C42   C     C_R   0.771239 0.968524 0.993236 -0.102353
C43   C     C_R   0.649318 0.963995 0.947114 -0.111143
C44   C     C_2   0.140963 0.318597 0.900213 0.520663
C45   C     C_R   0.944942 0.539475 0.625026 -0.021633
C46   C     C_R   0.071167 0.542285 0.615372 -0.102972
C47   C     C_R   0.128621 0.513620 0.492745 0.008861
C48   C     C_R   0.056571 0.494989 0.370323 -0.038657
C49   C     C_R   0.937466 0.690038 0.821666 -0.107067
Cu1   Cu    Cu3+1 0.499990 0.499980 0.640670 0.948210
Cu2   Cu    Cu3+1 0.500010 0.500020 0.359330 0.954815
H1    H     H_    0.246209 0.545453 0.872557 0.152493
H2    H     H_    0.248658 0.717512 0.038167 0.094563
H3    H     H_    0.393182 0.339253 0.861304 0.154222
H4    H     H_    0.664512 0.737326 0.882887 0.170278
H5    H     H_    0.492023 0.739273 0.878262 0.146478
H6    H     H_    0.660830 0.750630 0.134336 0.117578
H7    H     H_    0.489358 0.749282 0.125479 0.145476
H8    H     H_    0.160942 0.695703 0.268971 0.100474
H9    H     H_    0.064725 0.323039 0.165356 0.132455
H10   H     H_    0.876803 0.463523 0.284966 0.138686
H11   H     H_    0.125505 0.571496 0.704793 0.134688
H12   H     H_    0.867141 0.649539 0.157511 0.111638
H13   H     H_    0.981617 0.756659 0.758663 0.097904
H14   H     H_    0.965631 0.798164 0.010892 0.104027
H15   H     H_    0.504983 0.163371 0.136597 0.093662
H16   H     H_    0.656102 0.261485 0.987284 0.103147
H17   H     H_    0.875651 0.263778 0.054751 0.137376
H18   H     H_    0.943298 0.183225 0.280651 0.117742
H19   H     H_    0.794268 0.090797 0.432187 0.094483
H20   H     H_    0.695331 0.993818 0.603124 0.115573
H21   H     H_    0.906355 0.013871 0.686393 0.103018
H22   H     H_    0.957364 0.998642 0.936867 0.123984
H23   H     H_    0.795109 0.452413 0.056183 0.107905
H24   H     H_    0.793854 0.958980 0.102166 0.117595
H25   H     H_    0.578340 0.954387 0.021964 0.103393
H26   H     H_    0.111838 0.139187 0.864958 0.323959
H27   H     H_    0.827264 0.398012 0.808857 0.127359
H28   H     H_    0.596492 0.883378 0.309538 0.118878
H29   H     H_    0.421232 0.915108 0.830248 0.101560
H30   H     H_    0.353762 0.111228 0.791997 0.135097
H31   H     H_    0.515878 0.162597 0.780600 0.155887
H32   H     H_    0.387773 0.342668 0.119534 0.123082
N1    N     N_R   0.500790 0.500930 0.147930 -0.231636
N2    N     N_R   0.500790 0.500890 0.852020 -0.250944
O1    O     O_R   0.500000 0.319640 0.618810 -0.513941
O2    O     O_R   0.109373 0.202670 0.943351 -0.750650
O3    O     O_R   0.500010 0.319680 0.381230 -0.500918
O4    O     O_R   0.319640 0.499990 0.618790 -0.488453
O5    O     O_R   0.319650 0.500030 0.381210 -0.497338
O6    O     O_R   0.499990 0.680320 0.618770 -0.510922
O7    O     O_R   0.500000 0.680360 0.381190 -0.514234
O8    O     O_R   0.680350 0.499970 0.618790 -0.501620
O9    O     O_R   0.680360 0.500010 0.381210 -0.507893
O10   O     O_2   0.164492 0.333236 0.778642 -0.537027

loop_
_geom_bond_atom_site_label_1
_geom_bond_atom_site_label_2
_ccdc_geom_bond_type
C25   O8    A    
C18   C21   A    
C41   C42   A    
C19   C20   A    
C15   H29   S    
C2    H14   S    
C45   C46   A    
C42   H24   S    
C46   H11   S    
C18   C24   S    
C7    C45   S    
C21   C22   S    
C36   C37   A    
Cu2   O5    S    
C38   C39   A    
C6    H27   S    
C1    O1    A    
C17   H31   S    
C5    H23   S    
Cu1   N2    S    
C10   C31   S    
C28   C48   S    
C47   C48   A    
C8    C9    A    
C18   N1    A    
C44   O2    S    
C9    C10   A    
C25   C34   S    
C1    O3    A    
C25   O9    A    
C49   H13   S    
C37   H19   S    
C30   C44   S    
C19   H32   S    
C12   H1    S    
C4    O5    A    
C21   N2    A    
C1    C9    S    
C7    C49   A    
C20   H3    S    
C39   C40   A    
C24   H6    S    
C22   H5    S    
C31   C37   A    
C12   C26   A    
C35   C36   A    
C15   C38   S    
C29   C30   A    
C2    C49   A    
Cu2   O7    S    
Cu1   O4    S    
C31   C32   A    
C29   H9    S    
C23   C34   A    
C20   N2    A    
Cu1   Cu2   S    
C26   C27   A    
C34   C45   A    
C6    C7    A    
C11   H28   S    
C40   C41   A    
C16   O7    A    
C22   C24   S    
C42   C43   A    
C19   N1    A    
C26   H2    S    
C36   H18   S    
C33   H16   S    
C32   H15   S    
C4    O4    A    
C43   H25   S    
C15   C17   S    
C46   C47   A    
C28   C29   A    
C8    C14   A    
C23   C48   A    
C40   H21   S    
C12   C30   A    
C3    C5    A    
Cu2   O3    S    
Cu1   O8    S    
C22   H4    S    
C3    H12   S    
C8    C17   S    
C32   C33   A    
C2    C3    A    
C38   C43   A    
C44   O10   D    
C27   H8    S    
C11   C13   A    
C5    C6    A    
C35   H17   S    
C33   C35   A    
C17   H30   S    
C10   C11   A    
Cu1   O1    S    
Cu2   O9    S    
C41   H22   S    
Cu1   O6    S    
C23   H10   S    
H26   O2    S    
C16   O6    A    
C24   H7    S    
C13   C16   S    
C27   C28   A    
C39   H20   S    
C14   C15   S    
C13   C14   A    
Cu2   N1    S    
C4    C47   S    
