data_str_m12_o12_o24_f0_bcu.sym.150
_audit_creation_date              2013-03-05T15:41:55-0500
_audit_creation_method            fapswitch 2.2
_symmetry_space_group_name_H-M    P1
_symmetry_Int_Tables_number       1
_space_group_crystal_system       triclinic
_cell_length_a                    25.175807
_cell_length_b                    16.906229
_cell_length_c                    15.923032
_cell_angle_alpha                 89.589793
_cell_angle_beta                  48.609667
_cell_angle_gamma                 89.662425
_cell_volume                      5084.3382034

loop_
_atom_site_label
_atom_site_type_symbol
_atom_site_description
_atom_site_fract_x
_atom_site_fract_y
_atom_site_fract_z
_atom_type_partial_charge
C1    C     C_R   0.333160 0.107486 0.806719 -0.075020
C2    C     C_R   0.666835 0.892489 0.193288 -0.076134
C3    C     C_R   0.668922 0.100851 0.191363 -0.105829
C4    C     C_R   0.331081 0.899138 0.808636 -0.105855
C5    C     C_R   0.862246 0.653928 0.738321 -0.018730
C6    C     C_R   0.137695 0.346042 0.261809 -0.017947
C7    C     C_R   0.141324 0.650934 0.255475 -0.020282
C8    C     C_R   0.858682 0.349061 0.744509 -0.020277
H1    H     H_    0.279173 0.096011 0.846021 0.149688
H2    H     H_    0.720822 0.903969 0.153975 0.149932
H3    H     H_    0.721337 0.090718 0.160829 0.151067
H4    H     H_    0.278663 0.909265 0.839181 0.151054
H5    H     H_    0.822926 0.678767 0.739685 0.135754
H6    H     H_    0.176988 0.321197 0.260508 0.135736
H7    H     H_    0.180914 0.672677 0.254530 0.102492
H8    H     H_    0.819102 0.327313 0.745434 0.102493
N1    N     N_R   0.389620 0.081040 0.705440 -0.057960
N2    N     N_R   0.610380 0.918960 0.294560 -0.057873
N3    N     N_R   0.610380 0.081040 0.294560 -0.054295
N4    N     N_R   0.389620 0.918960 0.705440 -0.054310
N5    N     N_R   0.889620 0.581040 0.705440 -0.064626
N6    N     N_R   0.110380 0.418960 0.294560 -0.064639
N7    N     N_R   0.110380 0.581040 0.294560 -0.066597
N8    N     N_R   0.889620 0.418960 0.705440 -0.066608
C9    C     C_R   0.587215 0.148111 0.591719 -0.091011
C10   C     C_R   0.412785 0.851887 0.408284 -0.091043
C11   C     C_R   0.414750 0.149313 0.407257 -0.090402
C12   C     C_R   0.585251 0.850683 0.592732 -0.090396
C13   C     C_R   0.110786 0.614433 0.593134 -0.141241
C14   C     C_R   0.889213 0.385565 0.406867 -0.141256
C15   C     C_R   0.883380 0.608967 0.412956 -0.091125
C16   C     C_R   0.116630 0.391053 0.587038 -0.091046
H9    H     H_    0.559568 0.162495 0.677914 0.119139
H10   H     H_    0.440433 0.837502 0.322089 0.119192
H11   H     H_    0.444491 0.164590 0.320423 0.114821
H12   H     H_    0.555509 0.835399 0.679564 0.114811
H13   H     H_    0.089552 0.612462 0.678353 0.104609
H14   H     H_    0.910447 0.387536 0.321648 0.104628
H15   H     H_    0.902937 0.607935 0.328696 0.098617
H16   H     H_    0.097073 0.392086 0.671298 0.098618
N9    N     N_R   0.582320 0.079840 0.556630 -0.057182
N10   N     N_R   0.417680 0.920160 0.443370 -0.057205
N11   N     N_R   0.417680 0.079840 0.443370 -0.057226
N12   N     N_R   0.582320 0.920160 0.556630 -0.057225
N13   N     N_R   0.082320 0.579840 0.556630 -0.052683
N14   N     N_R   0.917680 0.420160 0.443370 -0.052685
N15   N     N_R   0.917680 0.579840 0.443370 -0.055235
N16   N     N_R   0.082320 0.420160 0.556630 -0.055244
C17   C     C_R   0.664374 0.146804 0.404572 0.034618
C18   C     C_R   0.335626 0.853197 0.595431 0.034638
C19   C     C_R   0.337573 0.148297 0.593541 0.045356
C20   C     C_R   0.662438 0.851712 0.406443 0.045385
C21   C     C_R   0.188614 0.614382 0.406734 0.027606
C22   C     C_R   0.811385 0.385620 0.593267 0.027598
C23   C     C_R   0.809917 0.610956 0.600252 0.039755
C24   C     C_R   0.190091 0.389067 0.399745 0.039616
N17   N     N_R   0.627920 0.078930 0.443400 -0.069763
N18   N     N_R   0.372080 0.921070 0.556600 -0.069755
N19   N     N_R   0.372080 0.078930 0.556600 -0.069405
N20   N     N_R   0.627920 0.921070 0.443400 -0.069411
N21   N     N_R   0.127920 0.578930 0.443400 -0.072387
N22   N     N_R   0.872080 0.421070 0.556600 -0.072396
N23   N     N_R   0.872080 0.578930 0.556600 -0.067794
N24   N     N_R   0.127920 0.421070 0.443400 -0.067837
C25   C     C_R   0.580822 0.099751 0.192358 -0.109868
C26   C     C_R   0.419185 0.900237 0.807632 -0.109883
C27   C     C_R   0.422369 0.105640 0.802837 -0.108911
C28   C     C_R   0.577631 0.894357 0.197162 -0.108308
C29   C     C_R   0.055206 0.645824 0.250102 -0.058240
C30   C     C_R   0.944796 0.354174 0.749892 -0.058281
C31   C     C_R   0.944452 0.644838 0.750892 -0.087562
C32   C     C_R   0.055525 0.355144 0.249165 -0.087867
H17   H     H_    0.552704 0.092563 0.163117 0.100770
H18   H     H_    0.447306 0.907421 0.836870 0.100777
H19   H     H_    0.450356 0.098370 0.832406 0.102318
H20   H     H_    0.549652 0.901652 0.167584 0.102299
H21   H     H_    0.018716 0.661355 0.238572 0.109846
H22   H     H_    0.981288 0.338642 0.761419 0.109881
H23   H     H_    0.977625 0.657170 0.769634 0.096036
H24   H     H_    0.022371 0.342818 0.230385 0.096080
N25   N     N_R   0.555090 0.077730 0.294590 -0.047024
N26   N     N_R   0.444910 0.922270 0.705410 -0.047025
N27   N     N_R   0.444910 0.077730 0.705410 -0.050989
N28   N     N_R   0.555090 0.922270 0.294590 -0.051042
N29   N     N_R   0.055090 0.577730 0.294590 -0.054145
N30   N     N_R   0.944910 0.422270 0.705410 -0.054156
N31   N     N_R   0.944910 0.577730 0.705410 -0.048076
N32   N     N_R   0.055090 0.422270 0.294590 -0.048065
C33   C     C_R   0.352782 0.125791 0.866704 0.203139
C34   C     C_R   0.647217 0.874188 0.133293 0.202690
C35   C     C_R   0.652512 0.111628 0.124995 0.149878
C36   C     C_R   0.347498 0.888351 0.874996 0.149850
C37   C     C_R   0.894182 0.694692 0.769323 0.160663
C38   C     C_R   0.105761 0.305273 0.230809 0.160670
C39   C     C_R   0.108929 0.692295 0.225410 0.163144
C40   C     C_R   0.891075 0.307701 0.774577 0.163150
C41   C     C_R   0.639298 0.191321 0.497440 0.088804
C42   C     C_R   0.360699 0.808679 0.502566 0.088812
C43   C     C_R   0.363060 0.193429 0.500503 0.074012
C44   C     C_R   0.636949 0.806575 0.499478 0.074024
C45   C     C_R   0.176693 0.637575 0.500796 0.107538
C46   C     C_R   0.823307 0.362423 0.499205 0.107544
C47   C     C_R   0.816108 0.628961 0.509516 0.063277
C48   C     C_R   0.183909 0.371077 0.490475 0.063255
Ni1   Ni    Ni4+2 0.382970 1.000000 0.629840 0.225753
Ni2   Ni    Ni4+2 0.617030 0.000000 0.370160 0.225746
Ni3   Ni    Ni4+2 0.882970 0.500000 0.629840 0.230626
Ni4   Ni    Ni4+2 0.117030 0.500000 0.370160 0.230660
Ni5   Ni    Ni4+2 0.514540 1.000000 0.629840 0.226676
Ni6   Ni    Ni4+2 0.485460 0.000000 0.370160 0.226659
Ni7   Ni    Ni4+2 0.014540 0.500000 0.629840 0.223721
Ni8   Ni    Ni4+2 0.985460 0.500000 0.370160 0.223732
C49   C     C_3   0.322990 0.251507 0.398776 -0.280896
C50   C     C_3   0.677003 0.748495 0.601231 -0.280895
C51   C     C_3   0.664145 0.281336 0.603990 -0.250511
C52   C     C_3   0.335843 0.718690 0.396011 -0.250467
C53   C     C_3   0.767340 0.665555 0.409501 -0.269682
C54   C     C_3   0.232702 0.334502 0.590466 -0.269612
C55   C     C_3   0.209703 0.707171 0.608842 -0.266214
C56   C     C_3   0.790300 0.292807 0.391168 -0.266201
C57   C     C_3   0.762323 0.756943 0.417441 -0.265275
C58   C     C_3   0.237689 0.243111 0.582576 -0.265304
C59   C     C_3   0.246091 0.785239 0.543537 -0.246325
C60   C     C_3   0.753892 0.214753 0.456507 -0.246325
C61   C     C_3   0.317902 0.343304 0.406014 -0.295467
C62   C     C_3   0.682122 0.656700 0.593943 -0.295414
C63   C     C_3   0.700792 0.360139 0.538925 -0.240481
C64   C     C_3   0.299217 0.639873 0.461044 -0.240487
H25   H     H_    0.799872 0.798149 0.347535 0.176959
H26   H     H_    0.200127 0.201933 0.652511 0.176956
H27   H     H_    0.224510 0.845980 0.570236 0.172351
H28   H     H_    0.775460 0.154005 0.429851 0.172342
H29   H     H_    0.350673 0.385232 0.334881 0.153370
H30   H     H_    0.649356 0.614754 0.665053 0.153361
H31   H     H_    0.678863 0.420796 0.565731 0.173500
H32   H     H_    0.321158 0.579222 0.434204 0.173499
H33   H     H_    0.358437 0.216844 0.320255 0.158374
H34   H     H_    0.641537 0.783135 0.679771 0.158352
H35   H     H_    0.613035 0.276866 0.691522 0.166112
H36   H     H_    0.386946 0.723179 0.308476 0.166148
H37   H     H_    0.803496 0.630253 0.331714 0.169418
H38   H     H_    0.196564 0.369826 0.668234 0.169460
H39   H     H_    0.158644 0.702491 0.696390 0.162207
H40   H     H_    0.841366 0.297465 0.303624 0.162207
C65   C     C_3   0.680565 0.750547 0.500941 0.011210
C66   C     C_3   0.319450 0.249472 0.499046 0.011214
C67   C     C_3   0.317578 0.752849 0.501743 -0.023582
C68   C     C_3   0.682417 0.247154 0.498264 -0.023589
C69   C     C_3   0.236500 0.335735 0.489808 -0.023231
C70   C     C_3   0.763521 0.664303 0.510179 -0.023188
C71   C     C_3   0.772034 0.326736 0.497000 -0.034459
C72   C     C_3   0.227964 0.673264 0.503004 -0.034457
C73   C     C_3   0.242216 0.246154 0.482934 0.395686
C74   C     C_3   0.757777 0.753881 0.517100 0.395673
C75   C     C_3   0.735741 0.249834 0.560114 0.424937
C76   C     C_3   0.264237 0.750181 0.439923 0.424904
C77   C     C_3   0.685729 0.660745 0.493594 0.416623
C78   C     C_3   0.314316 0.339278 0.506345 0.416664
C79   C     C_3   0.281598 0.676006 0.565241 0.413201
C80   C     C_3   0.718417 0.323983 0.434735 0.413231
C81   C     C_2   0.702740 0.123965 0.003416 -0.218693
C82   C     C_2   0.297279 0.875998 0.996569 -0.218604
C83   C     C_2   0.302166 0.139303 0.986275 -0.251708
C84   C     C_2   0.697852 0.860784 0.013681 -0.251136
C85   C     C_2   0.132128 0.769860 0.172772 -0.271402
C86   C     C_2   0.867875 0.230135 0.827214 -0.271395
C87   C     C_2   0.865587 0.766925 0.836743 -0.185994
C88   C     C_2   0.134412 0.233091 0.163289 -0.186102
C89   C     C_2   0.771027 0.136287 0.950821 0.241546
C90   C     C_2   0.228988 0.863698 0.049175 0.241527
C91   C     C_2   0.259826 0.202875 0.026714 0.216590
C92   C     C_2   0.740169 0.797202 0.973236 0.216741
C93   C     C_2   0.201464 0.781910 0.086057 0.195552
C94   C     C_2   0.798539 0.218078 0.913920 0.195569
C95   C     C_2   0.809765 0.801331 0.857403 0.220856
C96   C     C_2   0.190261 0.198715 0.142580 0.221276
H41   H     H_    0.320058 0.846071 0.026932 0.172513
H42   H     H_    0.679963 0.153867 0.973034 0.172565
H43   H     H_    0.711104 0.911385 0.960544 0.203872
H44   H     H_    0.288955 0.088746 0.039454 0.203952
H45   H     H_    0.905476 0.181673 0.784682 0.207014
H46   H     H_    0.094535 0.818327 0.215320 0.207012
H47   H     H_    0.132560 0.233993 0.097219 0.127248
H48   H     H_    0.867463 0.766087 0.902791 0.127708
C97   C     C_R   0.734774 0.157040 0.291950 0.039674
C98   C     C_R   0.790957 0.107818 0.257926 -0.184556
C99   C     C_R   0.859769 0.122593 0.157889 -0.052494
C100  C     C_R   0.873153 0.187427 0.091557 -0.053389
C101  C     C_R   0.817512 0.236489 0.124240 -0.042683
C102  C     C_R   0.748418 0.221294 0.223857 -0.109694
H49   H     H_    0.782198 0.061745 0.313186 0.119227
H50   H     H_    0.902951 0.085048 0.133376 0.116494
H51   H     H_    0.926597 0.199643 0.014824 0.120466
H52   H     H_    0.828337 0.286892 0.072965 0.182734
H53   H     H_    0.705688 0.259634 0.248247 0.191790
C103  C     C_R   0.265222 0.842978 0.708051 0.039674
C104  C     C_R   0.209065 0.892251 0.742084 -0.184552
C105  C     C_R   0.140248 0.877509 0.842127 -0.052411
C106  C     C_R   0.126834 0.812659 0.908458 -0.053422
C107  C     C_R   0.182451 0.763548 0.875767 -0.042863
C108  C     C_R   0.251551 0.778711 0.776144 -0.109669
H54   H     H_    0.217850 0.938339 0.686822 0.119221
H55   H     H_    0.097084 0.915092 0.866647 0.116497
H56   H     H_    0.073386 0.800470 0.985196 0.120478
H57   H     H_    0.171604 0.713135 0.927043 0.182723
H58   H     H_    0.294265 0.740339 0.751754 0.191814
C109  C     C_R   0.272541 0.165651 0.709506 0.032795
C110  C     C_R   0.261615 0.241135 0.755121 -0.072965
C111  C     C_R   0.196006 0.260950 0.858458 -0.071124
C112  C     C_R   0.141256 0.205431 0.917494 -0.163577
C113  C     C_R   0.152258 0.129734 0.873969 -0.037905
C114  C     C_R   0.217496 0.110185 0.770083 -0.191192
H59   H     H_    0.303232 0.285038 0.709373 0.180201
H60   H     H_    0.187297 0.319666 0.892123 0.176620
H61   H     H_    0.090237 0.221104 0.996855 0.117532
H62   H     H_    0.109926 0.086663 0.919717 0.132357
H63   H     H_    0.224982 0.052874 0.735467 0.126633
C115  C     C_R   0.727505 0.834412 0.290480 0.032988
C116  C     C_R   0.738546 0.758913 0.244833 -0.073807
C117  C     C_R   0.804203 0.739169 0.141524 -0.070602
C118  C     C_R   0.858868 0.794791 0.082507 -0.163526
C119  C     C_R   0.847745 0.870505 0.126053 -0.037873
C120  C     C_R   0.782473 0.889971 0.229938 -0.191123
H64   H     H_    0.696991 0.714939 0.290550 0.180030
H65   H     H_    0.813018 0.680428 0.107872 0.176709
H66   H     H_    0.909913 0.779181 0.003147 0.117524
H67   H     H_    0.890010 0.913658 0.080322 0.132437
H68   H     H_    0.774885 0.947307 0.264562 0.126627
C121  C     C_R   0.262598 0.601936 0.298729 0.016766
C122  C     C_R   0.304147 0.543098 0.294260 -0.146530
C123  C     C_R   0.376468 0.535775 0.201168 -0.084329
C124  C     C_R   0.409149 0.588931 0.112220 -0.149674
C125  C     C_R   0.370023 0.650844 0.118093 -0.017361
C126  C     C_R   0.297865 0.658508 0.211613 -0.071944
H69   H     H_    0.280367 0.503232 0.364291 0.115574
H70   H     H_    0.407344 0.489372 0.198383 0.119699
H71   H     H_    0.465153 0.583526 0.040344 0.114888
H72   H     H_    0.396140 0.694547 0.051683 0.146790
H73   H     H_    0.271886 0.711630 0.217209 0.162767
C127  C     C_R   0.737399 0.398079 0.701262 0.016731
C128  C     C_R   0.695857 0.456908 0.705697 -0.146436
C129  C     C_R   0.623532 0.464233 0.798770 -0.084298
C130  C     C_R   0.590842 0.411094 0.887738 -0.149764
C131  C     C_R   0.629964 0.349196 0.881907 -0.017399
C132  C     C_R   0.702125 0.341526 0.788403 -0.071848
H74   H     H_    0.719647 0.496767 0.635655 0.115545
H75   H     H_    0.592660 0.510626 0.801527 0.119700
H76   H     H_    0.534835 0.416503 0.959601 0.114939
H77   H     H_    0.603840 0.305506 0.948333 0.146846
H78   H     H_    0.728097 0.288409 0.782838 0.162786
C133  C     C_R   0.746208 0.615005 0.723567 0.011061
C134  C     C_R   0.700893 0.681016 0.769829 -0.091656
C135  C     C_R   0.643718 0.686813 0.884992 -0.120729
C136  C     C_R   0.632455 0.628153 0.957169 -0.076644
C137  C     C_R   0.679672 0.565031 0.914400 0.001898
C138  C     C_R   0.736651 0.559309 0.799164 -0.148715
H79   H     H_    0.712026 0.730806 0.718749 0.173934
H80   H     H_    0.609281 0.738010 0.918495 0.139144
H81   H     H_    0.588405 0.632803 0.046386 0.150268
H82   H     H_    0.672418 0.520557 0.970443 0.166115
H83   H     H_    0.772700 0.510523 0.769622 0.133892
C139  C     C_R   0.253788 0.384998 0.276424 0.010866
C140  C     C_R   0.299083 0.318970 0.230168 -0.091381
C141  C     C_R   0.356204 0.313116 0.114989 -0.120732
C142  C     C_R   0.367439 0.371742 0.042796 -0.077477
C143  C     C_R   0.320262 0.434904 0.085575 0.002764
C144  C     C_R   0.263331 0.440679 0.200824 -0.148491
H84   H     H_    0.287961 0.269201 0.281270 0.173931
H85   H     H_    0.390616 0.261896 0.081490 0.139162
H86   H     H_    0.411435 0.367035 0.953566 0.149992
H87   H     H_    0.327497 0.479359 0.029527 0.166089
H88   H     H_    0.227300 0.489485 0.230369 0.133822
N33   N     N_R   0.201183 0.192921 0.473175 0.240884
O1    O     O_R   0.232220 0.133268 0.405038 -0.316692
O2    O     O_R   0.132417 0.196892 0.545298 -0.360721
N34   N     N_R   0.798781 0.807122 0.526911 0.240896
O3    O     O_R   0.767725 0.866788 0.595019 -0.316734
O4    O     O_R   0.867547 0.803157 0.454830 -0.360614
N35   N     N_R   0.746775 0.204778 0.625763 0.221638
O5    O     O_R   0.693099 0.171634 0.719187 -0.416679
O6    O     O_R   0.810701 0.186281 0.582301 -0.374051
N36   N     N_R   0.253182 0.795248 0.374308 0.221642
O7    O     O_R   0.306845 0.828414 0.280891 -0.416653
O8    O     O_R   0.189247 0.813733 0.417794 -0.374014
N37   N     N_R   0.644426 0.610939 0.481109 0.230882
O9    O     O_R   0.675995 0.565219 0.394475 -0.320471
O10   O     O_R   0.575671 0.611980 0.556840 -0.336844
N38   N     N_R   0.355646 0.389073 0.518783 0.230898
O11   O     O_R   0.324103 0.434792 0.605412 -0.320438
O12   O     O_R   0.424400 0.388010 0.443028 -0.336836
N39   N     N_R   0.293826 0.632789 0.630436 0.235839
O13   O     O_R   0.240742 0.602508 0.726967 -0.377611
O14   O     O_R   0.358179 0.616156 0.586398 -0.303723
N40   N     N_R   0.706209 0.367191 0.369509 0.235844
O15   O     O_R   0.759304 0.397473 0.272987 -0.377594
O16   O     O_R   0.641863 0.383834 0.413523 -0.303745
N41   N     N_R   0.188754 0.924227 0.047851 0.239519
O17   O     O_R   0.134429 0.906278 0.058437 -0.424796
O18   O     O_R   0.206551 0.998184 0.035827 -0.427182
N42   N     N_R   0.811268 0.075786 0.952174 0.239505
O19   O     O_R   0.793485 0.001822 0.964222 -0.427274
O20   O     O_R   0.865586 0.093767 0.941592 -0.424828
N43   N     N_R   0.718313 0.725535 0.040448 0.235871
O21   O     O_R   0.652241 0.714341 0.129674 -0.379236
O22   O     O_R   0.761046 0.665481 0.003099 -0.422131
N44   N     N_R   0.281529 0.274535 0.959513 0.235598
O23   O     O_R   0.239122 0.334966 0.997768 -0.422022
O24   O     O_R   0.347338 0.285332 0.869223 -0.379132
N45   N     N_R   0.751533 0.285087 0.975822 0.234880
O25   O     O_R   0.689891 0.289019 0.004141 -0.438116
O26   O     O_R   0.771415 0.344041 0.001518 -0.374814
N46   N     N_R   0.248458 0.714896 0.024139 0.234898
O27   O     O_R   0.228563 0.655964 0.998432 -0.374786
O28   O     O_R   0.310093 0.710930 0.995839 -0.438102
N47   N     N_R   0.185622 0.172477 0.233775 0.247490
O29   O     O_R   0.124186 0.161595 0.333276 -0.299549
O30   O     O_R   0.242620 0.157692 0.217372 -0.378856
N48   N     N_R   0.814437 0.827533 0.766165 0.247524
O31   O     O_R   0.757455 0.842360 0.782537 -0.378670
O32   O     O_R   0.875886 0.838351 0.666667 -0.299549

loop_
_geom_bond_atom_site_label_1
_geom_bond_atom_site_label_2
_geom_bond_distance
_ccdc_geom_bond_type
C132  H78   1.076771 S    
C141  H85   1.082403 S    
N14   Ni8   1.861947 S    
C55   H39   1.109936 S    
N39   O13   1.300426 A    
C56   H40   1.109936 S    
N10   N18   1.353499 A    
C97   C102  1.403079 A    
N43   O22   1.300621 A    
C11   C43   1.379724 A    
N36   O7    1.300671 A    
N14   N22   1.353499 A    
C94   N45   1.453659 S    
C131  C132  1.398990 A    
C14   H14   1.080977 S    
C68   C80   1.521353 S    
C121  C126  1.410531 A    
C2    C34   1.371953 A    
C69   C73   1.518337 S    
C82   H41   1.085506 S    
C135  H80   1.082403 S    
C72   C76   1.521892 S    
C6    C38   1.378864 A    
C28   C34   1.364382 A    
C108  H58   1.082203 S    
C16   C48   1.379824 A    
C3    N3    1.334129 A    
C123  H70   1.081386 S    
N11   Ni6   1.859470 S    
C71   C75   1.521895 S    
C4    H4    1.075711 S    
C5    H5    1.059967 S    
C92   C95   1.484194 S    
C46   C71   1.449466 S    
C32   C38   1.377673 A    
C7    H7    1.055060 S    
C106  C107  1.396273 A    
C8    H8    1.055066 S    
C59   C76   1.515308 S    
C86   C94   1.344626 D    
C57   C74   1.514146 S    
C140  C141  1.398092 A    
C9    N9    1.327222 A    
C61   C78   1.540370 S    
C11   H11   1.080388 S    
C51   C68   1.538311 S    
C12   N12   1.327026 A    
C34   C84   1.447768 S    
C49   C66   1.539263 S    
C54   C69   1.541228 S    
C142  H86   1.082313 S    
C121  C122  1.406789 A    
C26   N26   1.344518 A    
C65   C77   1.521739 S    
C144  H88   1.075831 S    
N43   O21   1.302307 A    
C14   C46   1.356956 A    
N44   O23   1.300294 A    
N8    Ni3   1.895897 S    
C84   H43   1.085695 S    
C61   C69   1.543155 S    
C51   H35   1.109979 S    
C106  H56   1.082398 S    
C57   C65   1.548497 S    
C49   H33   1.109914 S    
C54   C78   1.543843 S    
N42   O19   1.300173 A    
C25   C35   1.374592 A    
C103  C104  1.402106 A    
C29   C39   1.380596 A    
C52   C67   1.538320 S    
N13   Ni7   1.861947 S    
C31   C37   1.377685 A    
C55   C59   1.548365 S    
N37   O10   1.300146 A    
C133  C138  1.413144 A    
C136  H81   1.082312 S    
C58   C66   1.548495 S    
C52   C76   1.532789 S    
C3    H3    1.075709 S    
C17   C41   1.388343 A    
C4    N4    1.334145 A    
N3    Ni2   1.895897 S    
N31   Ni7   1.858480 S    
N25   Ni6   1.860901 S    
C62   H30   1.107116 S    
C55   C79   1.538845 S    
C130  H76   1.082714 S    
C56   C80   1.538844 S    
C73   N33   1.458248 S    
C98   C99   1.396849 A    
C50   C74   1.528468 S    
C134  C135  1.398084 A    
C27   N27   1.339581 A    
C110  H59   1.082352 S    
N4    N26   1.393106 A    
C29   H21   1.079870 S    
N29   Ni8   1.860901 S    
C31   H23   1.078220 S    
C115  C120  1.401743 A    
C119  H67   1.082421 S    
N39   O14   1.300292 A    
C80   N40   1.454415 S    
C143  H87   1.082378 S    
C135  C136  1.393129 A    
C50   C62   1.555295 S    
C19   C109  1.476676 S    
C42   C67   1.449365 S    
C112  H61   1.082268 S    
C26   H18   1.081842 S    
C17   N17   1.339105 A    
N46   O27   1.301495 A    
C60   H28   1.106651 S    
C128  C129  1.399528 A    
C54   C58   1.548692 S    
N48   O32   1.301874 A    
C20   N20   1.340919 A    
C47   C70   1.442978 S    
C63   C71   1.546466 S    
C116  H64   1.082346 S    
C21   N21   1.364195 A    
C64   C72   1.546461 S    
C141  C142  1.393133 A    
C23   N23   1.335088 A    
C24   N24   1.335095 A    
C125  C126  1.398990 A    
N11   N19   1.353359 A    
C81   C89   1.340961 D    
C95   N48   1.444338 S    
N35   O6    1.300486 A    
C113  H62   1.082416 S    
N9    Ni5   1.861947 S    
N41   O18   1.300180 A    
C122  C123  1.399525 A    
C101  H52   1.079592 S    
C117  C118  1.397773 A    
N24   Ni4   1.900539 S    
N45   O26   1.301495 A    
C18   C42   1.388344 A    
C131  H77   1.082367 S    
N26   Ni5   1.860901 S    
C38   C88   1.465705 S    
C139  C144  1.413142 A    
C26   C36   1.374563 A    
C20   C44   1.386070 A    
N38   O12   1.300146 A    
C30   C40   1.380606 A    
N2    Ni2   1.909729 S    
C118  C119  1.396217 A    
C6    H6    1.059965 S    
N2    N28   1.392451 A    
C87   H48   1.083459 S    
C44   C65   1.457636 S    
C89   C94   1.482749 S    
C88   H47   1.083423 S    
C111  C112  1.397778 A    
C5    N5    1.337776 A    
C104  H54   1.079431 S    
C74   N34   1.458241 S    
C99   H50   1.082321 S    
C102  H53   1.082209 S    
C9    C41   1.378115 A    
C100  H51   1.082398 S    
C124  H71   1.082713 S    
C58   C73   1.514160 S    
C84   C92   1.339542 D    
C27   H19   1.081696 S    
N20   Ni2   1.900539 S    
C10   N10   1.327221 A    
C87   C95   1.342915 D    
C62   C77   1.540351 S    
C55   C72   1.538267 S    
C88   C96   1.342920 D    
C137  H82   1.082378 S    
C56   C71   1.538258 S    
C14   N14   1.324450 A    
C50   C65   1.539260 S    
C59   C67   1.546473 S    
C139  C140  1.405365 A    
C66   C78   1.521746 S    
C28   H20   1.081699 S    
C91   C96   1.484197 S    
C1    N1    1.338895 A    
N18   Ni1   1.914483 S    
N30   Ni7   1.860901 S    
N10   Ni6   1.861947 S    
C32   H24   1.078219 S    
C76   N36   1.456085 S    
C62   C70   1.543147 S    
C7    N7    1.322764 A    
C127  C128  1.406796 A    
C8    N8    1.322766 A    
C40   C86   1.452306 S    
C50   H34   1.109913 S    
C104  C105  1.396850 A    
C17   C97   1.477612 S    
N34   O3    1.300024 A    
C96   N47   1.444355 S    
C60   C75   1.515297 S    
C103  C108  1.403074 A    
N3    N25   1.393110 A    
N8    N30   1.393106 A    
C63   C80   1.536475 S    
C13   N13   1.324447 A    
C64   C79   1.536481 S    
C9    H9    1.080208 S    
C30   N30   1.346380 A    
C91   N44   1.458555 S    
C107  H57   1.079595 S    
C29   N29   1.346374 A    
C133  C134  1.405366 A    
C60   C68   1.546475 S    
N19   Ni1   1.900541 S    
C85   H46   1.084924 S    
C63   H31   1.107514 S    
C64   H32   1.107512 S    
N15   N23   1.353359 A    
N40   O15   1.300425 A    
N16   N24   1.353361 A    
C2    N2    1.338950 A    
C114  H63   1.070646 S    
C130  C131  1.393586 A    
C6    N6    1.337745 A    
C3    C35   1.376365 A    
C98   H49   1.079440 S    
C18   C103  1.477591 S    
C21   C45   1.378291 A    
C110  C111  1.398336 A    
N44   O24   1.301997 A    
N35   O5    1.300671 A    
N6    N32   1.392451 A    
C83   C91   1.339677 D    
N12   Ni5   1.859470 S    
C70   C74   1.518325 S    
N47   O29   1.301916 A    
C15   N15   1.329394 A    
C138  H83   1.075832 S    
C16   N16   1.329428 A    
C39   C85   1.452304 S    
N42   O20   1.300133 A    
C134  H79   1.067789 S    
C140  H84   1.067786 S    
C128  H74   1.080435 S    
C28   N28   1.339603 A    
C1    H1    1.073865 S    
C24   C48   1.378690 A    
C116  C117  1.398344 A    
C77   N37   1.454617 S    
N22   Ni3   1.914483 S    
C22   N22   1.364197 A    
C118  H66   1.082274 S    
C109  C110  1.405947 A    
C18   N18   1.339081 A    
C48   C69   1.443018 S    
C53   H37   1.110024 S    
C125  H72   1.082365 S    
N37   O9    1.300102 A    
C25   N25   1.344534 A    
C113  C114  1.397081 A    
C82   C90   1.340940 D    
C92   N43   1.458327 S    
C129  C130  1.392850 A    
C13   C45   1.356955 A    
C122  H69   1.080427 S    
C31   N31   1.346239 A    
N4    Ni1   1.895897 S    
C36   C82   1.466405 S    
C59   H27   1.106658 S    
N36   O8    1.300485 A    
C22   C46   1.378286 A    
C57   H25   1.105955 S    
C45   C72   1.449460 S    
C20   C115  1.476719 S    
C111  H60   1.081862 S    
N9    N17   1.353500 A    
C99   C100  1.395601 A    
C97   C98   1.402122 A    
N12   N20   1.353361 A    
N6    Ni4   1.909729 S    
N7    Ni4   1.895897 S    
N13   N21   1.353500 A    
C124  C125  1.393591 A    
N46   O28   1.299969 A    
C101  C102  1.399518 A    
C89   N42   1.445472 S    
C79   N39   1.454416 S    
N32   Ni8   1.858480 S    
C11   N11   1.327030 A    
C12   H12   1.080386 S    
C13   H13   1.080975 S    
C105  H55   1.082320 S    
C35   C81   1.466423 S    
C81   H42   1.085508 S    
C33   C83   1.447576 S    
C21   C121  1.495279 S    
C4    C36   1.376390 A    
C90   C93   1.482740 S    
N5    N31   1.392447 A    
C30   H22   1.079872 S    
N41   O17   1.300130 A    
C24   C139  1.506258 S    
C8    C40   1.374060 A    
C67   C79   1.521348 S    
C25   H17   1.081839 S    
N45   O25   1.299968 A    
C78   N38   1.454617 S    
C136  C137  1.393054 A    
C49   C61   1.555294 S    
C85   C93   1.344611 D    
N15   Ni8   1.859470 S    
C23   C47   1.378695 A    
C27   C33   1.364335 A    
C51   C63   1.558913 S    
N21   Ni4   1.914480 S    
C53   C57   1.548695 S    
N33   O2    1.300458 A    
C10   H10   1.080209 S    
C107  C108  1.399519 A    
C75   N35   1.456085 S    
N27   Ni5   1.858480 S    
C105  C106  1.395607 A    
C142  C143  1.393050 A    
C12   C44   1.379754 A    
C86   H45   1.084924 S    
C32   N32   1.346219 A    
C19   C43   1.386051 A    
N47   O30   1.300356 A    
C53   C77   1.543831 S    
C120  H68   1.070626 S    
N28   Ni6   1.858480 S    
C93   N46   1.453652 S    
C100  C101  1.396267 A    
N1    N27   1.392447 A    
C15   C47   1.379802 A    
N48   O31   1.300352 A    
C90   N41   1.445464 S    
N1    Ni1   1.909729 S    
N33   O1    1.300024 A    
N5    Ni3   1.909729 S    
C10   C42   1.378129 A    
C43   C66   1.457670 S    
N34   O4    1.300459 A    
N7    N29   1.393110 A    
C109  C114  1.401750 A    
C41   C68   1.449363 S    
C23   C133  1.506245 S    
C19   N19   1.340959 A    
N23   Ni3   1.900541 S    
C137  C138  1.397936 A    
C2    H2    1.073839 S    
C83   H44   1.085699 S    
C61   H29   1.107123 S    
C1    C33   1.371898 A    
C51   C75   1.532792 S    
C49   C73   1.528461 S    
C54   H38   1.110024 S    
C5    C37   1.378872 A    
C7    C39   1.374067 A    
C129  H75   1.081383 S    
N38   O11   1.300100 A    
C22   C127  1.495282 S    
C53   C70   1.541222 S    
N40   O16   1.300291 A    
C115  C116  1.405950 A    
C127  C132  1.410534 A    
C15   H15   1.081432 S    
C117  H65   1.081848 S    
N17   Ni2   1.914480 S    
C126  H73   1.076777 S    
C16   H16   1.081433 S    
C119  C120  1.397083 A    
C143  C144  1.397934 A    
N16   Ni7   1.859470 S    
C37   C87   1.465770 S    
C112  C113  1.396219 A    
C52   C64   1.558907 S    
C123  C124  1.392852 A    
C58   H26   1.105931 S    
C56   C60   1.548366 S    
C52   H36   1.109977 S    
