data_str_m2_o9_o18_f0_pcu.sym.86
_audit_creation_date              2012-12-10T19:45:48-0500
_audit_creation_method            fapswitch 2.2
_symmetry_space_group_name_H-M    P1
_symmetry_Int_Tables_number       1
_space_group_crystal_system       triclinic
_cell_length_a                    10.804643
_cell_length_b                    14.616403
_cell_length_c                    14.772738
_cell_angle_alpha                 65.312216
_cell_angle_beta                  103.868405
_cell_angle_gamma                 102.521284
_cell_volume                      2039.86506095

loop_
_atom_site_label
_atom_site_type_symbol
_atom_type_description
_atom_site_fract_x
_atom_site_fract_y
_atom_site_fract_z
_atom_type_partial_charge
C1    C     C_R   0.478426 0.119737 0.312426 0.801767
C2    C     C_R   0.523452 0.880301 0.687686 0.786463
C3    C     C_R   0.870554 0.998556 0.498265 -0.083822
C4    C     C_R   0.129909 0.997278 0.507170 -0.083346
C5    C     C_R   0.906739 0.952715 0.442909 0.026769
C6    C     C_R   0.093894 0.041135 0.564774 0.036465
C7    C     C_R   0.469717 0.187323 0.205485 -0.058038
C8    C     C_R   0.545984 0.812906 0.794849 -0.054771
C9    C     C_R   0.422700 0.215198 0.028535 -0.165432
C10   C     C_R   0.628210 0.784615 0.970478 -0.171508
C11   C     C_R   0.428505 0.149145 0.129266 -0.207985
C12   C     C_R   0.602556 0.851083 0.869985 -0.201388
C13   C     C_R   0.504516 0.291905 0.180078 -0.210443
C14   C     C_R   0.515880 0.708069 0.821083 -0.220889
C15   C     C_R   0.503214 0.359962 0.079147 0.095248
C16   C     C_R   0.546438 0.639265 0.921012 0.102578
C17   C     C_R   0.459955 0.319901 0.002868 0.167037
C18   C     C_R   0.600310 0.679251 0.996534 0.162904
C19   C     C_R   0.540403 0.466539 0.051917 0.065356
C20   C     C_R   0.522425 0.532208 0.947967 0.069572
C21   C     C_R   0.483718 0.488663 0.874398 -0.138866
C22   C     C_R   0.596229 0.509584 0.124803 -0.135737
C23   C     C_R   0.262979 0.998868 0.503065 0.795840
C24   C     C_R   0.737191 0.000162 0.498334 0.798643
C25   C     C_R   0.454049 0.384533 0.901759 -0.160893
C26   C     C_R   0.626158 0.613868 0.097199 -0.176333
C27   C     C_R   0.710185 0.276134 0.679022 0.362589
C28   C     C_R   0.283015 0.716537 0.328799 0.374731
C29   C     C_R   0.674644 0.197225 0.643380 -0.053415
C30   C     C_R   0.312594 0.794298 0.366464 -0.065974
C31   C     C_R   0.523986 0.288024 0.508644 0.013970
C32   C     C_R   0.487634 0.718095 0.484827 0.018285
C33   C     C_R   0.554920 0.372684 0.537373 -0.120632
C34   C     C_R   0.457728 0.632430 0.458088 -0.087861
C35   C     C_R   0.645530 0.364542 0.628049 -0.058614
C36   C     C_R   0.362256 0.637301 0.371456 -0.074469
C37   C     C_R   0.495848 0.463503 0.479219 0.025912
C38   C     C_R   0.519843 0.543028 0.514682 0.072736
C39   C     C_R   0.600640 0.529447 0.608079 -0.380219
C40   C     C_R   0.417020 0.478640 0.384402 -0.296263
C41   C     C_R   0.665840 0.444788 0.663532 0.402370
C42   C     C_R   0.350813 0.562870 0.330577 0.476862
C43   C     C_R   0.371428 0.069903 0.769258 -0.178225
C44   C     C_R   0.646697 0.925420 0.229049 -0.222501
C45   C     C_R   0.283951 0.028956 0.705159 -0.068432
C46   C     C_R   0.733542 0.967969 0.292056 -0.091408
C47   C     C_R   0.187090 0.084212 0.634235 0.054261
C48   C     C_R   0.813773 0.907498 0.375796 0.084390
C49   C     C_R   0.173091 0.177463 0.635313 -0.254880
C50   C     C_R   0.807960 0.804154 0.394344 -0.290882
C51   C     C_R   0.256326 0.215734 0.704185 0.475576
C52   C     C_R   0.722920 0.761179 0.328496 0.499162
C53   C     C_R   0.357739 0.162852 0.768652 -0.190318
C54   C     C_R   0.641340 0.823003 0.247391 -0.166350
C55   C     C_R   0.963597 0.041005 0.558845 -0.232582
C56   C     C_R   0.036435 0.952558 0.448603 -0.229653
Cu1   Cu    Cu3+1 0.466270 0.918260 0.475690 0.939508
Cu2   Cu    Cu3+1 0.533730 0.081740 0.524310 0.939846
H1    H     H_    0.423114 0.191748 0.821392 0.143887
H2    H     H_    0.573729 0.791365 0.197394 0.169571
H3    H     H_    0.387900 0.184255 0.970809 0.134682
H4    H     H_    0.670904 0.815524 0.027788 0.135095
H5    H     H_    0.478985 0.532692 0.794548 0.144326
H6    H     H_    0.620884 0.464828 0.204134 0.133956
H7    H     H_    0.569386 0.726444 0.540388 0.140171
H8    H     H_    0.448410 0.284244 0.447449 0.142994
H9    H     H_    0.254570 0.855128 0.338017 0.132296
H10   H     H_    0.716326 0.127306 0.683544 0.135188
H11   H     H_    0.612140 0.584173 0.641243 0.171786
H12   H     H_    0.408010 0.426577 0.348375 0.186423
H13   H     H_    0.447518 0.027991 0.821881 0.149318
H14   H     H_    0.584017 0.972131 0.165203 0.154726
H15   H     H_    0.292574 0.954494 0.710156 0.117212
H16   H     H_    0.737633 0.047839 0.276153 0.128776
H17   H     H_    0.093548 0.217796 0.586572 0.137306
H18   H     H_    0.869146 0.758623 0.460350 0.121040
H19   H     H_    0.934091 0.071675 0.604552 0.148002
H20   H     H_    0.064528 0.920003 0.403884 0.152396
H21   H     H_    0.425642 0.354429 0.843125 0.165825
H22   H     H_    0.668693 0.643650 0.155323 0.171227
H23   H     H_    0.466317 0.681987 0.762068 0.145847
H24   H     H_    0.529858 0.318595 0.240639 0.153932
H25   H     H_    0.627642 0.931997 0.851117 0.139925
H26   H     H_    0.399595 0.068582 0.147355 0.147776
N1    N     N_R   0.584450 0.204570 0.560790 -0.193225
N2    N     N_R   0.415550 0.795430 0.439210 -0.191098
O1    O     O_R   0.455540 0.022090 0.338120 -0.582614
O2    O     O_R   0.544460 0.977910 0.661880 -0.593382
O3    O     O_R   0.512510 0.160150 0.379180 -0.588231
O4    O     O_R   0.487490 0.839850 0.620820 -0.586143
O5    O     O_R   0.291160 0.930970 0.479480 -0.589428
O6    O     O_R   0.708840 0.069030 0.520520 -0.586948
O7    O     O_R   0.348130 0.069020 0.520540 -0.568624
O8    O     O_R   0.651870 0.930980 0.479460 -0.572290
S1    S     S_3+6 0.767845 0.445733 0.777822 0.021131
O9    O     O_2   0.726296 0.353969 0.866096 -0.215553
O10   O     O_2   0.904696 0.444428 0.772691 -0.307797
O11   O     O_3   0.761861 0.549753 0.798025 -0.532712
H27   H     H_    0.818569 0.604854 0.754362 0.344275
S2    S     S_3+6 0.270023 0.576653 0.206377 0.012989
O12   O     O_2   0.127556 0.549084 0.205850 -0.243455
O13   O     O_2   0.298354 0.684649 0.134384 -0.318709
O14   O     O_3   0.319347 0.499652 0.167376 -0.561563
H28   H     H_    0.282019 0.520743 0.094658 0.382324
O15   O     O_3   0.795760 0.262020 0.769074 -0.543706
C57   C     C_3   0.909041 0.224828 0.773664 0.126959
H29   H     H_    0.992778 0.276682 0.792814 0.220405
H30   H     H_    0.920460 0.224198 0.700828 0.099783
C58   C     C_3   0.915666 0.119205 0.858634 -0.373548
H31   H     H_    0.919223 0.124788 0.932013 0.247334
H32   H     H_    0.828370 0.066713 0.846404 0.200332
C59   C     C_3   0.034061 0.074835 0.864294 -0.874035
H33   H     H_    0.030952 0.066916 0.792291 0.259785
H34   H     H_    0.036309 0.998351 0.925733 0.248118
H35   H     H_    0.123074 0.124161 0.880192 0.280669
O16   O     O_3   0.167053 0.705567 0.265606 -0.562534
C60   C     C_3   0.128467 0.798209 0.190154 0.148395
H36   H     H_    0.098865 0.787659 0.117375 0.206691
H37   H     H_    0.206803 0.863697 0.177001 0.097423
C61   C     C_3   0.011047 0.821138 0.214182 -0.402153
H38   H     H_    0.931630 0.757832 0.217057 0.240191
H39   H     H_    0.034664 0.826876 0.289111 0.202881
C62   C     C_3   0.964429 0.919506 0.134470 -0.923698
H40   H     H_    0.044257 0.983417 0.123713 0.263734
H41   H     H_    0.886929 0.937999 0.158944 0.273969
H42   H     H_    0.924660 0.910173 0.061822 0.256522
O17   O     O_3   0.221783 0.288952 0.725910 -0.648263
C63   C     C_3   0.245010 0.385873 0.649987 -0.006300
H43   H     H_    0.201474 0.387334 0.573015 0.150823
H44   H     H_    0.350465 0.409797 0.653966 0.167566
C64   C     C_3   0.184690 0.459792 0.669992 -0.309267
H45   H     H_    0.078449 0.440882 0.657405 0.235150
H46   H     H_    0.216625 0.451376 0.750086 0.242896
C65   C     C_3   0.221009 0.569903 0.602148 -0.896429
H47   H     H_    0.325684 0.592502 0.620905 0.252343
H48   H     H_    0.168641 0.619867 0.614827 0.263234
H49   H     H_    0.194988 0.580123 0.521503 0.255957
O18   O     O_3   0.710002 0.660097 0.339705 -0.630304
C66   C     C_3   0.813754 0.607758 0.403813 0.030363
H50   H     H_    0.804352 0.584771 0.483985 0.170373
H51   H     H_    0.908469 0.654572 0.389577 0.140846
C67   C     C_3   0.809090 0.512876 0.382980 -0.298845
H52   H     H_    0.711573 0.468885 0.386945 0.227929
H53   H     H_    0.829027 0.536190 0.305428 0.227708
C68   C     C_3   0.907390 0.444823 0.458455 -0.890664
H54   H     H_    0.006168 0.486102 0.452800 0.269121
H55   H     H_    0.899900 0.376305 0.441705 0.257749
H56   H     H_    0.888871 0.420018 0.536534 0.245154

loop_
_geom_bond_atom_site_label_1
_geom_bond_atom_site_label_2
_ccdc_geom_bond_type
C1    O1    A    
C31   H8    S    
Cu2   N1    S    
C24   O8    A    
C31   N1    A    
C27   C29   A    
C5    C56   A    
C36   C42   A    
C19   C20   A    
C18   C26   A    
C6    C55   A    
C64   C65   S    
C63   H43   S    
C65   H49   S    
C59   H34   S    
C68   H54   S    
C53   H1    S    
S1    O11   S    
C62   H40   S    
C39   C41   A    
C54   H2    S    
Cu1   N2    S    
C15   C19   A    
C40   H12   S    
C9    H3    S    
Cu2   O7    S    
C37   C40   A    
C42   S2    S    
C58   H32   S    
C38   C39   A    
C55   H19   S    
C66   C67   S    
C62   H41   S    
C57   H29   S    
C27   O15   S    
C56   H20   S    
O16   C60   S    
C45   H15   S    
C2    O4    A    
C28   O16   S    
C3    C55   A    
C43   C53   A    
S1    O9    D    
C44   C46   A    
C49   C51   A    
C52   O18   S    
C49   H17   S    
Cu1   O1    S    
C2    O2    A    
C14   C16   A    
C30   N2    A    
C29   N1    A    
C30   H9    S    
C61   C62   S    
C8    C12   A    
C52   C54   A    
C40   C42   A    
C1    C7    S    
C4    C56   A    
C67   C68   S    
C3    C24   S    
C10   H4    S    
C25   H21   S    
C24   O6    A    
C59   H33   S    
C68   H55   S    
C1    O3    A    
C61   H39   S    
C45   C47   A    
C5    C48   S    
C46   C48   A    
C6    C47   S    
C19   C22   A    
C43   H13   S    
C4    C6    A    
Cu1   O4    S    
C58   C59   S    
C4    C23   S    
C62   H42   S    
C65   H48   S    
C27   C35   A    
C13   H24   S    
S2    O14   S    
C33   C37   A    
C23   O7    A    
C12   H25   S    
C63   H44   S    
C51   C53   A    
C32   C34   A    
C7    C11   A    
C37   C38   A    
C50   H18   S    
C29   H10   S    
C43   C45   A    
C50   C52   A    
C16   C20   A    
C32   N2    A    
S2    O13   D    
C39   H11   S    
C48   C50   A    
C9    C11   A    
C10   C12   A    
C9    C17   A    
Cu1   O8    S    
C13   C15   A    
C23   O5    A    
C60   C61   S    
C64   H45   S    
C63   C64   S    
C3    C5    A    
C46   H16   S    
C68   H56   S    
C61   H38   S    
C15   C17   A    
C21   C25   A    
C31   C33   A    
C8    C14   A    
Cu1   O5    S    
C34   C38   A    
C2    C8    S    
C64   H46   S    
Cu2   O2    S    
C66   H50   S    
S1    O10   D    
C65   H47   S    
C11   H26   S    
C47   C49   A    
O15   C57   S    
C17   C25   A    
C60   H37   S    
C51   O17   S    
C60   H36   S    
C66   H51   S    
Cu1   Cu2   S    
C41   S1    S    
C57   H30   S    
C10   C18   A    
C28   C30   A    
S2    O12   D    
C33   C35   A    
C44   H14   S    
C34   C36   A    
C35   C41   A    
Cu2   O3    S    
C26   H22   S    
C21   H5    S    
O18   C66   S    
C22   H6    S    
C44   C54   A    
C7    C13   A    
C20   C21   A    
C28   C36   A    
C16   C18   A    
O11   H27   S    
C22   C26   A    
O14   H28   S    
C67   H52   S    
C14   H23   S    
C58   H31   S    
Cu2   O6    S    
C59   H35   S    
C67   H53   S    
O17   C63   S    
C32   H7    S    
C57   C58   S    
