data_str_m9_o16_o24_f0_sra.sym.38
_audit_creation_date              2012-12-11T15:13:44-0500
_audit_creation_method            fapswitch 2.2
_symmetry_space_group_name_H-M    P1
_symmetry_Int_Tables_number       1
_space_group_crystal_system       triclinic
_cell_length_a                    6.949379
_cell_length_b                    13.498321
_cell_length_c                    20.109047
_cell_angle_alpha                 104.058174
_cell_angle_beta                  90.67554
_cell_angle_gamma                 90.194669
_cell_volume                      1829.66652204

loop_
_atom_site_label
_atom_site_type_symbol
_atom_type_description
_atom_site_fract_x
_atom_site_fract_y
_atom_site_fract_z
_atom_type_partial_charge
O1    O     O_R   0.506780 0.600060 0.449950 -0.541678
O2    O     O_R   0.179840 0.597110 0.589410 -0.546707
O3    O     O_R   0.004570 0.399940 0.550050 -0.531331
C1    C     C_R   0.348988 0.618622 0.616963 0.690295
O4    O     O_R   0.177380 0.612160 0.452890 -0.544222
O5    O     O_R   0.002100 0.415100 0.412560 -0.538836
C2    C     C_R   0.345634 0.639269 0.436580 0.691960
O6    O     O_R   0.509250 0.584900 0.587440 -0.544951
O7    O     O_3   0.337570 0.435330 0.486930 -0.360273
V1    V     V_3+5 0.064650 0.512000 0.502430 1.458584
O8    O     O_R   0.672090 0.402890 0.410590 -0.540425
C3    C     C_R   0.839792 0.381062 0.383164 0.745357
O9    O     O_R   0.674540 0.387840 0.547110 -0.538882
C4    C     C_R   0.844287 0.360774 0.563422 0.779047
V2    V     V_3+5 0.564040 0.488000 0.497570 1.466572
O10   O     O_3   0.840990 0.564670 0.513070 -0.379730
C5    C     C_R   0.960731 0.114442 0.610326 -0.167575
H1    H     H_    0.028595 0.996120 0.695219 0.129660
H2    H     H_    0.011308 0.038750 0.585493 0.148249
C6    C     C_R   0.859230 0.282148 0.602045 -0.111457
C7    C     C_R   0.791090 0.313698 0.930472 -0.160910
C8    C     C_R   0.759090 0.387910 0.894458 -0.122329
C9    C     C_R   0.785629 0.365868 0.823835 -0.156026
C10   C     C_R   0.847528 0.268078 0.787197 0.098960
C11   C     C_R   0.886843 0.193401 0.824973 0.061530
C12   C     C_R   0.869995 0.241589 0.714415 0.082371
C13   C     C_R   0.935810 0.142372 0.681582 0.068057
C14   C     C_R   0.977845 0.071674 0.719976 -0.073155
C15   C     C_R   0.953274 0.096397 0.790416 -0.100959
C16   C     C_R   0.830458 0.310160 0.672891 -0.283243
C17   C     C_R   0.924596 0.183984 0.570643 0.374316
C18   C     C_R   0.855074 0.216770 0.896581 -0.072443
H3    H     H_    0.782401 0.387034 0.694018 0.109790
H4    H     H_    0.764450 0.331643 0.985083 0.105435
H5    H     H_    0.755880 0.427189 0.799661 0.102526
H6    H     H_    0.710405 0.462901 0.921354 0.115480
H7    H     H_    0.985826 0.038133 0.817466 0.127494
C19   C     C_3   0.678885 0.225212 0.226731 0.414897
C20   C     C_3   0.764615 0.201495 0.292213 -0.159045
H8    H     H_    0.688314 0.161910 0.326648 0.159902
C21   C     C_3   0.846819 0.311009 0.312663 -0.097456
C22   C     C_3   0.758547 0.335317 0.247824 -0.210811
C23   C     C_3   0.946270 0.298606 0.208559 -0.164593
C24   C     C_3   0.034355 0.275397 0.274344 -0.024944
C25   C     C_3   0.952373 0.165026 0.252860 -0.132854
C26   C     C_3   0.864434 0.188943 0.187750 -0.068906
H9    H     H_    0.676998 0.405248 0.246071 0.128330
H10   H     H_    0.021998 0.338159 0.173990 0.139315
H11   H     H_    0.180469 0.297726 0.295697 0.165880
H12   H     H_    0.033029 0.094842 0.254556 0.147911
C27   C     C_3   0.538612 0.734500 0.728053 -0.154757
C28   C     C_3   0.435419 0.838288 0.748443 0.420304
H13   H     H_    0.688956 0.722647 0.709889 0.126313
C29   C     C_3   0.355174 0.811028 0.812501 -0.066069
C30   C     C_3   0.456836 0.706751 0.792790 -0.200849
C31   C     C_3   0.274822 0.659893 0.751421 -0.129307
C32   C     C_3   0.173380 0.764947 0.771805 -0.174674
C33   C     C_3   0.254516 0.792580 0.707008 -0.162088
C34   C     C_3   0.356577 0.688503 0.687574 -0.055710
H14   H     H_    0.539304 0.671414 0.828561 0.113888
H15   H     H_    0.208632 0.585206 0.752140 0.111121
H16   H     H_    0.023162 0.777619 0.789973 0.132600
H17   H     H_    0.172957 0.827355 0.670786 0.120505
C35   C     C_R   0.341103 0.893608 0.392252 -0.107286
H18   H     H_    0.334647 0.844000 0.485805 0.118860
H19   H     H_    0.339013 0.019474 0.309584 0.155381
H20   H     H_    0.333810 0.973553 0.418955 0.162378
C36   C     C_R   0.352155 0.716910 0.397226 -0.038604
C37   C     C_R   0.369029 0.680623 0.067351 -0.173338
C38   C     C_R   0.370375 0.603913 0.102512 -0.116454
C39   C     C_R   0.365695 0.628190 0.173892 -0.159881
C40   C     C_R   0.359137 0.731167 0.212296 0.082447
C41   C     C_R   0.355892 0.809454 0.175774 0.060467
C42   C     C_R   0.355844 0.759080 0.285552 0.072111
C43   C     C_R   0.347542 0.864187 0.320368 0.124339
C44   C     C_R   0.344765 0.939253 0.283358 -0.182839
C45   C     C_R   0.348950 0.912496 0.212281 -0.204924
C46   C     C_R   0.359692 0.686419 0.325730 -0.216535
C47   C     C_R   0.342097 0.820262 0.430417 -0.160688
C48   C     C_R   0.361303 0.783016 0.103191 -0.075928
H21   H     H_    0.366114 0.605464 0.303346 0.094146
H22   H     H_    0.374616 0.660120 0.011851 0.096664
H23   H     H_    0.367549 0.564346 0.197193 0.110442
H24   H     H_    0.376049 0.524764 0.074213 0.122871
H25   H     H_    0.346115 0.973635 0.186090 0.171775
O11   O     O_R   0.203580 0.914920 0.912610 -0.550645
O12   O     O_R   0.535710 0.887810 0.047120 -0.542996
O13   O     O_R   0.710730 0.084950 0.087430 -0.515614
C49   C     C_R   0.367615 0.861055 0.063787 0.684633
O14   O     O_R   0.533010 0.902850 0.910600 -0.536498
O15   O     O_R   0.708010 0.100090 0.949930 -0.526324
C50   C     C_R   0.363665 0.881093 0.883111 0.719895
O16   O     O_R   0.206300 0.899780 0.050100 -0.542627
O17   O     O_3   0.375170 0.064580 0.013100 -0.345674
V3    V     V_3+5 0.648200 0.988020 0.997570 1.499019
O18   O     O_R   0.038030 0.112330 0.952840 -0.547726
C51   C     C_R   0.868495 0.138601 0.935899 0.690244
O19   O     O_R   0.040730 0.097300 0.089360 -0.522499
C52   C     C_R   0.872810 0.118913 0.116979 0.726413
V4    V     V_3+5 0.148780 0.012220 0.002360 1.492301
O20   O     O_3   0.871930 0.935430 0.986900 -0.384721
Cl1   Cl    Cl    0.964843 0.146477 0.481708 -0.703751
Cl2   Cl    Cl    0.440855 0.193042 0.195350 -0.733819
Cl3   Cl    Cl    0.537337 0.958313 0.745935 -0.714473

loop_
_geom_bond_atom_site_label_1
_geom_bond_atom_site_label_2
_ccdc_geom_bond_type
C24   H11   S    
C26   C52   S    
H18   C47   S    
C21   C22   S    
C1    O6    A    
C32   H16   S    
C20   C21   S    
C6    C16   A    
C25   C26   S    
C31   C32   S    
C12   C13   A    
C19   Cl2   S    
C14   C15   A    
C10   C12   A    
C19   C22   S    
O5    C3    A    
C19   C20   S    
V2    O10   S    
C18   C51   S    
C48   C49   S    
C37   H22   S    
C5    H2    S    
C2    C36   S    
O8    V2    S    
C41   C48   A    
O12   V3    S    
C9    C10   A    
C38   C39   A    
O1    V2    S    
O9    C4    A    
C38   H24   S    
O7    V1    S    
C20   C25   S    
C11   C18   A    
O13   V3    S    
C45   H25   S    
C30   H14   S    
C11   C15   A    
O17   V3    S    
C28   C29   S    
C39   H23   S    
C36   C46   A    
C7    C18   A    
C42   C43   A    
C27   C28   S    
C5    C13   A    
C17   Cl1   S    
C4    C6    S    
O14   V3    S    
H1    C14   S    
C10   C11   A    
C40   C42   A    
C20   H8    S    
O4    C2    A    
C7    H4    S    
C33   C34   S    
O15   C51   A    
C27   H13   S    
O2    C1    A    
C43   C44   A    
C35   H20   S    
C29   C50   S    
C3    C21   S    
O14   C50   A    
O17   V4    S    
H19   C44   S    
O18   C51   A    
C30   C31   S    
C31   H15   S    
C44   C45   A    
O16   V4    S    
O3    C4    A    
C28   C33   S    
C12   C16   A    
O6    V2    S    
O19   V4    S    
O12   C49   A    
C23   C24   S    
C5    C17   A    
C21   C24   S    
C27   C34   S    
C22   C23   S    
O2    V1    S    
O11   V4    S    
C24   C25   S    
C23   H10   S    
C33   H17   S    
C29   C30   S    
C28   Cl3   S    
C16   H3    S    
O1    C2    A    
C40   C41   A    
O5    V1    S    
O8    C3    A    
C8    H6    S    
C9    H5    S    
C31   C34   S    
O9    V2    S    
O7    V2    S    
O4    V1    S    
O3    V1    S    
O11   C50   A    
C46   H21   S    
C32   C33   S    
C25   H12   S    
C36   C47   A    
O18   V4    S    
C1    C34   S    
V4    O20   S    
C35   C47   A    
C35   C43   A    
C27   C30   S    
C22   H9    S    
C49   O16   A    
C37   C38   A    
C23   C26   S    
C19   C26   S    
O13   C52   A    
O15   V3    S    
C39   C40   A    
O19   C52   A    
C42   C46   A    
C15   H7    S    
C13   C14   A    
C41   C45   A    
C8    C9    A    
C37   C48   A    
V1    O10   S    
C7    C8    A    
C29   C32   S    
V3    O20   S    
C6    C17   A    
