data_str_m3_o10_o25_f0_pcu.sym.111
_audit_creation_date              2012-12-10T16:56:28-0500
_audit_creation_method            fapswitch 2.2
_symmetry_space_group_name_H-M    P1
_symmetry_Int_Tables_number       1
_space_group_crystal_system       triclinic
_cell_length_a                    7.78097
_cell_length_b                    8.581376
_cell_length_c                    15.698012
_cell_angle_alpha                 91.382777
_cell_angle_beta                  85.231024
_cell_angle_gamma                 93.692481
_cell_volume                      1042.1956876

loop_
_atom_site_label
_atom_site_type_symbol
_atom_type_description
_atom_site_fract_x
_atom_site_fract_y
_atom_site_fract_z
_atom_type_partial_charge
C1    C     C_R   0.545774 0.794735 0.497833 0.961589
C2    C     C_3   0.425032 0.359931 0.026220 -0.340105
C3    C     C_1   0.503240 0.506035 0.750943 -0.167126
C4    C     C_1   0.496760 0.493965 0.249057 -0.167127
C5    C     C_3   0.334059 0.483596 0.978508 -0.312076
C6    C     C_3   0.665941 0.516406 0.021493 -0.312087
C7    C     C_3   0.498943 0.507811 0.917409 0.078489
C8    C     C_3   0.501058 0.492190 0.082591 0.078490
C9    C     C_1   0.501670 0.508893 0.826389 0.010631
C10   C     C_1   0.498331 0.491108 0.173611 0.010630
C11   C     C_3   0.263755 0.835664 0.025567 0.092907
C12   C     C_R   0.454226 0.205265 0.502167 0.961589
C13   C     C_3   0.159956 0.954922 0.077129 -0.838485
C14   C     C_3   0.736274 0.164358 0.974436 0.092885
C15   C     C_3   0.840023 0.045070 0.922874 -0.838499
C16   C     C_R   0.501336 0.501644 0.662010 0.898463
C17   C     C_R   0.498664 0.498356 0.337990 0.898462
C18   C     C_2   0.569851 0.958209 0.496569 -0.372582
C19   C     C_2   0.430148 0.041791 0.503431 -0.372582
C20   C     C_3   0.411839 0.613567 0.035619 0.581437
C21   C     C_3   0.588161 0.386435 0.964381 0.581439
C22   C     C_3   0.574969 0.640071 0.973780 -0.340118
H1    H     H_    0.632515 0.753653 0.949812 0.154940
H2    H     H_    0.376108 0.899103 0.990436 0.138978
H3    H     H_    0.236967 0.009098 0.127810 0.260203
H4    H     H_    0.126747 0.048063 0.034686 0.207555
H5    H     H_    0.038990 0.897289 0.107430 0.259943
H6    H     H_    0.623940 0.100944 0.009594 0.138972
H7    H     H_    0.820342 0.223932 0.020944 0.140520
H8    H     H_    0.960985 0.102676 0.892553 0.259945
H9    H     H_    0.873238 0.951934 0.965320 0.207559
H10   H     H_    0.762974 0.990894 0.872208 0.260208
H11   H     H_    0.367491 0.246343 0.050185 0.154938
H12   H     H_    0.800166 0.526417 0.041052 0.159976
H13   H     H_    0.199835 0.473585 0.958948 0.159977
H14   H     H_    0.701800 0.009257 0.490004 0.181721
H15   H     H_    0.298199 0.990743 0.509996 0.181721
H16   H     H_    0.013442 0.381319 0.436143 0.193086
H17   H     H_    0.986558 0.618681 0.563857 0.193086
H18   H     H_    0.179728 0.776102 0.979035 0.140510
N1    N     N_2   0.950320 0.457950 0.477300 -0.169695
N2    N     N_2   0.049680 0.542050 0.522700 -0.169695
O1    O     O_R   0.389250 0.738570 0.505570 -0.612958
O2    O     O_3   0.680551 0.271784 0.917824 -0.605135
O3    O     O_R   0.610750 0.261430 0.494430 -0.612958
O4    O     O_R   0.678390 0.711630 0.491020 -0.629923
O5    O     O_R   0.321610 0.288370 0.508980 -0.629923
O6    O     O_R   0.355460 0.513480 0.630490 -0.612955
O7    O     O_R   0.644540 0.486520 0.369510 -0.612955
O8    O     O_R   0.644600 0.486540 0.615950 -0.615345
O9    O     O_R   0.355400 0.513460 0.384050 -0.615344
O10   O     O_3   0.319447 0.728217 0.082176 -0.605137
Zn1   Zn    Zn3+2 0.306940 0.517990 0.509710 0.955979
Zn2   Zn    Zn3+2 0.693060 0.482010 0.490290 0.955979

loop_
_geom_bond_atom_site_label_1
_geom_bond_atom_site_label_2
_ccdc_geom_bond_type
C15   H9    S    
C3    C9    T    
C17   O9    A    
C21   O2    S    
N1    N2    D    
O5    Zn1   S    
C6    H12   S    
O4    Zn2   S    
C2    C21   S    
O1    Zn1   S    
C15   H10   S    
C20   O10   S    
C5    C20   S    
O8    Zn2   S    
C7    C21   S    
N1    Zn2   S    
C11   C13   S    
C13   H3    S    
C1    C18   S    
C8    C20   S    
C15   H8    S    
C12   O5    A    
C4    C17   S    
C5    H13   S    
C12   C19   S    
C8    C10   S    
C16   O8    A    
O3    Zn2   S    
H17   N2    S    
N2    Zn1   S    
O6    Zn1   S    
C1    O4    A    
C13   H4    S    
C2    C5    S    
C14   H7    S    
C4    C10   T    
C11   H18   S    
C7    C22   S    
C7    C9    S    
C11   H2    S    
C16   O6    A    
C2    H11   S    
H16   N1    S    
C14   O2    S    
C18   C19   D    
C17   O7    A    
C5    C7    S    
C22   H1    S    
C13   H5    S    
C6    C8    S    
C11   O10   S    
C19   H15   S    
C14   H6    S    
C14   C15   S    
C6    C21   S    
C18   H14   S    
C1    O1    A    
C2    C8    S    
C3    C16   S    
O7    Zn2   S    
C20   C22   S    
C12   O3    A    
O9    Zn1   S    
C6    C22   S    
