data_str_m2_o10_o17_f0_pcu.sym.84
_audit_creation_date              2012-12-10T16:44:45-0500
_audit_creation_method            fapswitch 2.2
_symmetry_space_group_name_H-M    P1
_symmetry_Int_Tables_number       1
_space_group_crystal_system       triclinic
_cell_length_a                    15.015706
_cell_length_b                    8.626642
_cell_length_c                    7.45675
_cell_angle_alpha                 102.901316
_cell_angle_beta                  94.571223
_cell_angle_gamma                 92.550826
_cell_volume                      936.601483173

loop_
_atom_site_label
_atom_site_type_symbol
_atom_type_description
_atom_site_fract_x
_atom_site_fract_y
_atom_site_fract_z
_atom_type_partial_charge
C1    C     C_R   0.485509 0.199841 0.454066 0.857866
C2    C     C_R   0.190399 0.453897 0.644671 -0.258899
C3    C     C_R   0.767699 0.496317 0.495139 -0.070033
C4    C     C_R   0.232512 0.505048 0.505331 -0.055763
C5    C     C_R   0.817990 0.444520 0.634676 -0.250685
C6    C     C_R   0.182362 0.557503 0.366155 -0.253866
C7    C     C_R   0.910717 0.444696 0.636858 0.101126
C8    C     C_R   0.089661 0.557901 0.364316 0.100445
C9    C     C_R   0.953454 0.499841 0.499100 0.065027
C10   C     C_R   0.046897 0.502799 0.502090 0.064685
C11   C     C_R   0.902822 0.552118 0.358462 0.106108
C12   C     C_R   0.489122 0.797723 0.546522 0.817077
C13   C     C_R   0.097504 0.450477 0.642721 0.107496
C14   C     C_R   0.961342 0.391239 0.774632 -0.213391
C15   C     C_R   0.039060 0.611641 0.226756 -0.214142
C16   C     C_3   0.406280 0.947339 0.243143 -0.368507
C17   C     C_3   0.320973 0.028750 0.201688 -0.869269
C18   C     C_3   0.429171 0.039173 0.757401 -0.364334
C19   C     C_3   0.335582 0.099801 0.732530 -0.845312
C20   C     C_R   0.054334 0.394339 0.777733 -0.219313
C21   C     C_R   0.946048 0.608504 0.223634 -0.219077
C22   C     C_2   0.456366 0.031649 0.427970 -0.041276
C23   C     C_2   0.462739 0.961667 0.572853 -0.087813
C24   C     C_R   0.328899 0.501248 0.501991 0.784348
C25   C     C_R   0.671139 0.499027 0.498069 0.827114
C26   C     C_R   0.809850 0.548289 0.356294 -0.250491
Cu1   Cu    Cu3+1 0.510010 0.517380 0.684380 0.932285
Cu2   Cu    Cu3+1 0.489990 0.482620 0.315620 0.922451
H1    H     H_    0.770488 0.589062 0.249423 0.146217
H2    H     H_    0.907941 0.649718 0.115650 0.153492
H3    H     H_    0.276090 0.031799 0.313657 0.251906
H4    H     H_    0.335843 0.152092 0.187611 0.272512
H5    H     H_    0.284804 0.960104 0.070264 0.245145
H6    H     H_    0.451972 0.943813 0.133271 0.202935
H7    H     H_    0.381950 0.823599 0.239439 0.239214
H8    H     H_    0.335529 0.192331 0.650660 0.252560
H9    H     H_    0.287242 0.999460 0.661558 0.252708
H10   H     H_    0.312618 0.153575 0.868815 0.229137
H11   H     H_    0.422417 0.950084 0.842060 0.216515
H12   H     H_    0.229688 0.413558 0.751926 0.146851
H13   H     H_    0.477537 0.134269 0.838979 0.227343
H14   H     H_    0.929028 0.347555 0.880208 0.157596
H15   H     H_    0.071401 0.655396 0.121249 0.157139
H16   H     H_    0.424847 0.387481 0.950769 0.229772
H17   H     H_    0.573356 0.616848 0.050342 0.224844
H18   H     H_    0.784830 0.403160 0.740977 0.153946
H19   H     H_    0.215598 0.598816 0.259886 0.152135
H20   H     H_    0.092466 0.353123 0.885703 0.153433
N1    N     N_2   0.474890 0.456420 0.038520 -0.230174
N2    N     N_2   0.525110 0.543580 0.961480 -0.222165
O1    O     O_R   0.506510 0.286130 0.619770 -0.588398
O2    O     O_R   0.493490 0.713870 0.380230 -0.602103
O3    O     O_R   0.489600 0.256770 0.308360 -0.580192
O4    O     O_R   0.510400 0.743230 0.691640 -0.585811
O5    O     O_R   0.378710 0.514640 0.655720 -0.596414
O6    O     O_R   0.621290 0.485360 0.344280 -0.583225
O7    O     O_R   0.361800 0.485290 0.344300 -0.601311
O8    O     O_R   0.638200 0.514710 0.655700 -0.579465

loop_
_geom_bond_atom_site_label_1
_geom_bond_atom_site_label_2
_ccdc_geom_bond_type
H16   N1    S    
C2    C4    A    
Cu2   O3    S    
Cu1   N2    S    
C19   H10   S    
C2    H12   S    
C7    C14   A    
C1    O1    A    
Cu2   N1    S    
C11   C26   A    
C25   O6    A    
C14   H14   S    
C18   H11   S    
Cu2   O6    S    
Cu1   O4    S    
C15   H15   S    
C1    C22   S    
Cu2   O7    S    
C24   O5    A    
Cu2   O2    S    
C12   C23   S    
C20   H20   S    
C5    H18   S    
C17   H5    S    
H17   N2    S    
Cu1   O8    S    
C17   H3    S    
C9    C10   A    
C8    C10   A    
C6    H19   S    
C12   O2    A    
Cu1   O1    S    
N1    N2    D    
C8    C15   A    
C5    C7    A    
C19   H8    S    
C9    C11   A    
C16   H7    S    
C4    C24   S    
Cu1   O5    S    
C25   O8    A    
C18   C23   S    
C14   C20   A    
C15   C21   A    
C3    C25   S    
C26   H1    S    
C4    C6    A    
C18   C19   S    
C21   H2    S    
C18   H13   S    
Cu1   Cu2   S    
C7    C9    A    
C2    C13   A    
C1    O3    A    
C22   C23   D    
C16   C17   S    
C6    C8    A    
C19   H9    S    
C13   C20   A    
C16   H6    S    
C11   C21   A    
C3    C26   A    
C12   O4    A    
C17   H4    S    
C16   C22   S    
C24   O7    A    
C3    C5    A    
C10   C13   A    
