data_str_m2_o13_o18_f0_pcu.sym.131
_audit_creation_date              2012-12-10T17:11:59-0500
_audit_creation_method            fapswitch 2.2
_symmetry_space_group_name_H-M    P1
_symmetry_Int_Tables_number       1
_space_group_crystal_system       triclinic
_cell_length_a                    11.904834
_cell_length_b                    12.930841
_cell_length_c                    15.685884
_cell_angle_alpha                 95.915429
_cell_angle_beta                  73.768161
_cell_angle_gamma                 100.581671
_cell_volume                      2275.57227131

loop_
_atom_site_label
_atom_site_type_symbol
_atom_type_description
_atom_site_fract_x
_atom_site_fract_y
_atom_site_fract_z
_atom_type_partial_charge
C1    C     C_R   0.519048 0.700271 0.505538 0.859454
C2    C     C_R   0.476476 0.299766 0.503009 0.853050
C3    C     C_R   0.374999 0.571051 0.092352 -0.261774
C4    C     C_R   0.654367 0.589300 0.915576 -0.291425
C5    C     C_R   0.288774 0.555475 0.045410 0.257346
C6    C     C_R   0.737280 0.608680 0.965703 0.239312
C7    C     C_R   0.461671 0.185416 0.502784 -0.186616
C8    C     C_R   0.522388 0.813594 0.518935 -0.224325
C9    C     C_R   0.503137 0.967398 0.623343 0.473290
C10   C     C_R   0.427788 0.020170 0.419309 0.490299
C11   C     C_R   0.520393 0.861459 0.603446 -0.376416
C12   C     C_R   0.419708 0.126653 0.435572 -0.420428
C13   C     C_R   0.497034 0.866858 0.455097 0.423424
C14   C     C_R   0.495608 0.135318 0.564713 0.431332
C15   C     C_R   0.473850 0.970490 0.475052 -0.140995
C16   C     C_R   0.491988 0.024658 0.554922 -0.162742
C17   C     C_R   0.953326 0.620570 0.562445 0.086540
C18   C     C_R   0.068357 0.407587 0.403208 0.133391
C19   C     C_R   0.834389 0.609219 0.555177 0.479725
C20   C     C_R   0.182914 0.410638 0.420042 0.509549
C21   C     C_R   0.857447 0.448548 0.467084 0.518543
C22   C     C_R   0.140851 0.544775 0.535075 0.558736
C23   C     C_R   0.428012 0.494539 0.668452 0.805860
C24   C     C_R   0.573333 0.511910 0.332491 0.762676
C25   C     C_R   0.983291 0.465604 0.463566 -0.224108
C26   C     C_R   0.025706 0.543775 0.521464 -0.244251
C27   C     C_R   0.389864 0.496869 0.766737 -0.083472
C28   C     C_R   0.618872 0.536477 0.237832 -0.068037
C29   C     C_R   0.236673 0.479686 0.906545 0.252481
C30   C     C_R   0.780431 0.597270 0.110712 0.266647
C31   C     C_R   0.272597 0.464621 0.813771 -0.254530
C32   C     C_R   0.739618 0.567079 0.198989 -0.297708
C33   C     C_R   0.475194 0.530729 0.813918 -0.227041
C34   C     C_R   0.539181 0.538612 0.188158 -0.248507
C35   C     C_R   0.444381 0.541024 0.907308 0.016561
C36   C     C_R   0.577106 0.566697 0.099081 -0.009663
C37   C     C_R   0.321906 0.524620 0.953721 0.026469
C38   C     C_R   0.699979 0.591922 0.057983 0.074503
C39   C     C_R   0.531583 0.565631 0.956077 0.050186
C40   C     C_R   0.494048 0.565835 0.049657 0.022969
Cu1   Cu    Cu3+1 0.386820 0.492450 0.493500 1.013290
Cu2   Cu    Cu3+1 0.613180 0.507550 0.506500 0.957078
H1    H     H_    0.446689 0.514488 0.219448 0.164143
H2    H     H_    0.565893 0.548680 0.775877 0.169772
H3    H     H_    0.802897 0.569983 0.237555 0.148949
H4    H     H_    0.208667 0.426528 0.778844 0.141087
H5    H     H_    0.351523 0.594831 0.161869 0.158629
H6    H     H_    0.689832 0.597705 0.845143 0.151310
H7    H     H_    0.386210 0.164733 0.392421 0.208050
H8    H     H_    0.524537 0.812934 0.654262 0.159762
N1    N     N_R   0.216750 0.481110 0.483710 -0.269477
N2    N     N_R   0.783250 0.518890 0.516290 -0.273640
O1    O     O_R   0.419950 0.645670 0.495380 -0.513328
O2    O     O_R   0.580050 0.354330 0.504620 -0.554718
O3    O     O_R   0.611110 0.658410 0.506370 -0.571967
O4    O     O_R   0.388890 0.341590 0.493630 -0.533477
O5    O     O_R   0.350820 0.490050 0.621260 -0.571075
O6    O     O_R   0.649180 0.509950 0.378740 -0.633482
O7    O     O_R   0.541970 0.502800 0.632250 -0.566414
O8    O     O_R   0.458030 0.497200 0.367750 -0.550176
N3    N     N_2   0.172059 0.578469 0.086636 -0.392489
H9    H     H_    0.142750 0.615999 0.044204 0.270127
C41   C     C_3   0.144677 0.626788 0.176064 -0.764096
H10   H     H_    0.048877 0.631186 0.199906 0.224993
H11   H     H_    0.195726 0.707523 0.176355 0.237545
H12   H     H_    0.164298 0.579330 0.223286 0.234089
N4    N     N_2   0.858546 0.640842 0.921154 -0.389526
H13   H     H_    0.891242 0.587774 0.870650 0.235378
C42   C     C_3   0.885750 0.747610 0.892428 -0.672049
H14   H     H_    0.983011 0.773734 0.875006 0.229942
H15   H     H_    0.844285 0.802457 0.946385 0.227298
H16   H     H_    0.853214 0.751698 0.833214 0.207114
O9    O     O_3   0.252584 0.331268 0.387926 -0.558918
C43   C     C_3   0.291346 0.317340 0.294274 0.120880
H17   H     H_    0.286860 0.386586 0.259480 0.145708
H18   H     H_    0.237745 0.245082 0.274415 0.154137
C44   C     C_3   0.416978 0.290008 0.262581 -0.844329
H19   H     H_    0.414021 0.203561 0.249207 0.212504
H20   H     H_    0.465225 0.326335 0.198770 0.215173
H21   H     H_    0.468184 0.315035 0.312041 0.259427
O10   O     O_3   0.766032 0.686321 0.594182 -0.561382
C45   C     C_3   0.813109 0.784409 0.553349 0.120753
H22   H     H_    0.760870 0.797732 0.508606 0.162989
H23   H     H_    0.904675 0.790530 0.509304 0.119059
C46   C     C_3   0.803893 0.874351 0.624600 -0.881930
H24   H     H_    0.882460 0.890989 0.651308 0.231835
H25   H     H_    0.796170 0.947435 0.596592 0.201049
H26   H     H_    0.724902 0.852522 0.680545 0.254138
N5    N     N_2   0.999354 0.710584 0.610855 -0.401215
H27   H     H_    0.942162 0.738990 0.666757 0.262690
C47   C     C_3   0.095793 0.786698 0.562281 -0.590382
H28   H     H_    0.131833 0.757795 0.492436 0.227039
H29   H     H_    0.168260 0.802942 0.595862 0.261632
H30   H     H_    0.065454 0.862544 0.561672 0.176668
N6    N     N_2   0.061301 0.392145 0.312909 -0.444322
H31   H     H_    0.029161 0.449345 0.289982 0.242210
C48   C     C_3   0.048263 0.289261 0.267017 -0.685358
H32   H     H_    0.122998 0.286866 0.206420 0.199256
H33   H     H_    0.972198 0.276691 0.238124 0.225649
H34   H     H_    0.040298 0.225142 0.311361 0.234356
N7    N     N_2   0.115811 0.444777 0.951639 -0.433832
H35   H     H_    0.056988 0.444576 0.914165 0.242024
C49   C     C_3   0.095069 0.347617 0.995993 -0.662817
H36   H     H_    0.000274 0.330019 0.033449 0.218282
H37   H     H_    0.149555 0.354414 0.043972 0.243521
H38   H     H_    0.116774 0.281524 0.946340 0.219775
N8    N     N_2   0.903144 0.631459 0.075768 -0.396994
H39   H     H_    0.951831 0.579794 0.088246 0.267594
C50   C     C_3   0.942404 0.740095 0.101122 -0.684082
H40   H     H_    0.890475 0.792957 0.082567 0.233446
H41   H     H_    0.931498 0.750310 0.174041 0.200949
H42   H     H_    0.037220 0.763735 0.066062 0.230370
O11   O     O_3   0.529481 0.195479 0.634635 -0.543264
C51   C     C_3   0.653136 0.202438 0.621902 0.124921
H43   H     H_    0.703689 0.208113 0.550882 0.179413
H44   H     H_    0.673009 0.132359 0.646435 0.137170
C52   C     C_3   0.697960 0.299313 0.674232 -0.747676
H45   H     H_    0.651878 0.293958 0.746097 0.233447
H46   H     H_    0.794807 0.305084 0.665045 0.181769
H47   H     H_    0.681304 0.371468 0.650554 0.276186
O12   O     O_3   0.488849 0.815214 0.374713 -0.536885
C53   C     C_3   0.603022 0.824904 0.314459 0.083190
H48   H     H_    0.661532 0.900690 0.324531 0.111835
H49   H     H_    0.646814 0.758552 0.321423 0.125878
C54   C     C_3   0.590689 0.819897 0.220092 -0.709519
H50   H     H_    0.562804 0.893221 0.208052 0.255615
H51   H     H_    0.676904 0.811414 0.171589 0.182221
H52   H     H_    0.522902 0.752062 0.209946 0.256549
O13   O     O_3   0.473022 0.011921 0.710090 -0.535947
C55   C     C_3   0.528992 0.977111 0.767549 0.057054
H53   H     H_    0.625820 0.983800 0.737240 0.128430
H54   H     H_    0.488821 0.895255 0.786250 0.144324
C56   C     C_3   0.510792 0.047376 0.852596 -0.757240
H55   H     H_    0.414608 0.043019 0.885692 0.249000
H56   H     H_    0.554439 0.021101 0.898679 0.189568
H57   H     H_    0.549985 0.130320 0.837152 0.251691
O14   O     O_3   0.394027 0.965370 0.347456 -0.539525
C57   C     C_3   0.270916 0.960463 0.359950 0.105844
H58   H     H_    0.252905 0.034589 0.340055 0.137042
H59   H     H_    0.219349 0.946654 0.430159 0.129733
C58   C     C_3   0.227571 0.869777 0.301501 -0.819860
H60   H     H_    0.244878 0.794535 0.319727 0.265321
H61   H     H_    0.130799 0.864520 0.310593 0.186179
H62   H     H_    0.274671 0.882708 0.230629 0.246095
O15   O     O_3   0.179291 0.610441 0.599876 -0.529279
C59   C     C_3   0.118060 0.572645 0.684568 0.111388
H63   H     H_    0.134338 0.492225 0.689422 0.126509
H64   H     H_    0.020513 0.568014 0.699162 0.129735
C60   C     C_3   0.160182 0.647913 0.754631 -0.785202
H65   H     H_    0.138729 0.727135 0.751419 0.245518
H66   H     H_    0.115917 0.618909 0.821941 0.204121
H67   H     H_    0.257652 0.655303 0.742404 0.250610
O16   O     O_3   0.806809 0.345780 0.448919 -0.573163
C61   C     C_3   0.782080 0.328214 0.364868 0.183055
H68   H     H_    0.846650 0.374615 0.312311 0.107184
H69   H     H_    0.697731 0.349429 0.365293 0.181651
C62   C     C_3   0.765218 0.209778 0.340971 -0.892968
H70   H     H_    0.836745 0.173374 0.352218 0.257143
H71   H     H_    0.680539 0.170451 0.383638 0.236927
H72   H     H_    0.762584 0.194799 0.270505 0.207711

loop_
_geom_bond_atom_site_label_1
_geom_bond_atom_site_label_2
_ccdc_geom_bond_type
C41   H11   S    
Cu1   Cu2   S    
N7    H35   S    
C5    C37   A    
C30   N8    S    
C1    C8    S    
C32   H3    S    
C55   H54   S    
C2    C7    S    
Cu2   O6    S    
C52   H46   S    
C12   H7    S    
C44   H19   S    
C27   C33   A    
C23   O7    A    
C8    C13   A    
C43   H18   S    
C17   C26   A    
C35   C37   A    
C9    C16   A    
O11   C51   S    
C20   N1    A    
C10   C15   A    
C58   H61   S    
C44   H21   S    
C15   C16   A    
C48   H32   S    
C30   C38   A    
C18   C20   A    
N3    C41   S    
O9    C43   S    
C3    H5    S    
C42   H15   S    
C1    O1    A    
C50   H41   S    
C17   C19   A    
C58   H60   S    
C19   N2    A    
C7    C14   A    
N6    H31   S    
C31   H4    S    
C56   H57   S    
N8    H39   S    
C6    C38   A    
C10   O14   S    
C23   C27   S    
N5    C47   S    
C61   H69   S    
C44   H20   S    
C41   H12   S    
C28   C34   A    
N7    C49   S    
C62   H70   S    
C18   N6    S    
N8    C50   S    
N3    H9    S    
C18   C25   A    
C48   H33   S    
O15   C59   S    
C59   H64   S    
C46   H25   S    
C7    C12   A    
C43   H17   S    
C27   C31   A    
N4    H13   S    
C36   C40   A    
C17   N5    S    
C61   C62   S    
C4    C6    A    
C2    O2    A    
C60   H67   S    
N5    H27   S    
C39   C40   A    
C25   C26   A    
C46   H24   S    
C43   C44   S    
C58   H62   S    
O10   C45   S    
C50   H42   S    
N4    C42   S    
C62   H71   S    
C42   H16   S    
C35   C39   A    
Cu1   O4    S    
C29   N7    S    
Cu2   O3    S    
C47   H29   S    
C59   C60   S    
C13   O12   S    
C22   O15   S    
C28   C32   A    
C24   O8    A    
C61   H68   S    
C5    N3    S    
C49   H37   S    
C9    C11   A    
Cu1   O1    S    
O12   C53   S    
C10   C12   A    
C6    N4    S    
C3    C40   A    
C62   H72   S    
C45   H23   S    
C13   C15   A    
C54   H50   S    
C14   C16   A    
C52   H47   S    
C55   C56   S    
C53   H49   S    
C45   C46   S    
C47   H28   S    
C48   H34   S    
C54   H51   S    
C59   H63   S    
C4    H6    S    
C46   H26   S    
C23   O5    A    
C21   C25   A    
C33   H2    S    
C34   H1    S    
C24   C28   S    
Cu1   O8    S    
C3    C5    A    
C57   C58   S    
Cu2   O7    S    
C51   H44   S    
N6    C48   S    
C51   H43   S    
C57   H59   S    
C9    O13   S    
C14   O11   S    
O14   C57   S    
C4    C39   A    
C52   H45   S    
C53   C54   S    
C60   H66   S    
C55   H53   S    
O13   C55   S    
Cu1   O5    S    
C29   C31   A    
C11   H8    S    
C2    O4    A    
C50   H40   S    
Cu2   O2    S    
C47   H30   S    
C30   C32   A    
C56   H55   S    
C19   O10   S    
C8    C11   A    
C36   C38   A    
C33   C35   A    
C20   O9    S    
C49   H38   S    
C34   C36   A    
C1    O3    A    
C42   H14   S    
C51   C52   S    
C57   H58   S    
C41   H10   S    
C24   O6    A    
C45   H22   S    
C22   C26   A    
C54   H52   S    
C29   C37   A    
C49   H36   S    
C56   H56   S    
C21   O16   S    
C53   H48   S    
C60   H65   S    
Cu1   N1    S    
C21   N2    A    
Cu2   N2    S    
C22   N1    A    
O16   C61   S    
