data_str_m9_o11_o18_f0_sra.sym.79
_audit_creation_date              2012-12-11T14:21:21-0500
_audit_creation_method            fapswitch 2.2
_symmetry_space_group_name_H-M    P1
_symmetry_Int_Tables_number       1
_space_group_crystal_system       triclinic
_cell_length_a                    21.972117
_cell_length_b                    7.206398
_cell_length_c                    14.911672
_cell_angle_alpha                 90.255805
_cell_angle_beta                  106.874033
_cell_angle_gamma                 90.115212
_cell_volume                      2259.41835214

loop_
_atom_site_label
_atom_site_type_symbol
_atom_type_description
_atom_site_fract_x
_atom_site_fract_y
_atom_site_fract_z
_atom_type_partial_charge
O1    O     O_R   0.584770 0.505770 0.002090 -0.536642
O2    O     O_R   0.415230 0.005770 0.997910 -0.534955
O3    O     O_R   0.467060 0.173340 0.861950 -0.534070
O4    O     O_R   0.532940 0.673340 0.138050 -0.535077
C1    C     C_R   0.455272 0.343702 0.825925 0.681562
C2    C     C_R   0.544665 0.844764 0.173992 0.681220
O5    O     O_R   0.587510 0.175890 0.993210 -0.540746
O6    O     O_R   0.412490 0.675890 0.006790 -0.542156
O7    O     O_R   0.536540 0.008150 0.130100 -0.535436
O8    O     O_R   0.463460 0.508150 0.869900 -0.536582
C3    C     C_R   0.612412 0.345100 0.995466 0.730718
C4    C     C_R   0.387601 0.844859 0.004549 0.729622
O9    O     O_3   0.483140 0.340040 0.044760 -0.373984
O10   O     O_3   0.516860 0.840040 0.955240 -0.374109
V1    V     V_3+5 0.503130 0.064190 0.991700 1.491995
V2    V     V_3+5 0.496870 0.564190 0.008300 1.486858
C5    C     C_2   0.215899 0.740499 0.009946 -0.148405
C6    C     C_2   0.783665 0.240728 0.988597 -0.148596
C7    C     C_2   0.176384 0.886223 0.980131 0.017417
C8    C     C_2   0.823748 0.385496 0.020162 0.018808
H1    H     H_    0.199558 0.624454 0.043184 0.137291
H2    H     H_    0.799493 0.125751 0.953741 0.134833
C9    C     C_2   0.280477 0.720792 0.997774 -0.093586
C10   C     C_2   0.719071 0.220866 0.000714 -0.086492
C11   C     C_2   0.322760 0.860982 0.014125 -0.256909
C12   C     C_2   0.677343 0.361592 0.986187 -0.259509
H3    H     H_    0.294767 0.583422 0.981653 0.156749
H4    H     H_    0.704258 0.083054 0.015088 0.156710
H5    H     H_    0.309694 0.994781 0.036497 0.175862
H6    H     H_    0.690909 0.495934 0.965401 0.173211
C13   C     C_R   0.926237 0.883815 0.724347 -0.030503
C14   C     C_R   0.073652 0.390656 0.275950 -0.033383
C15   C     C_R   0.572685 0.854329 0.275408 -0.032501
C16   C     C_R   0.427385 0.348320 0.724321 -0.034452
C17   C     C_R   0.936204 0.854798 0.568179 -0.161166
C18   C     C_R   0.065327 0.439239 0.432014 -0.161368
C19   C     C_R   0.964296 0.867939 0.664465 -0.164427
C20   C     C_R   0.036844 0.429188 0.335763 -0.163765
C21   C     C_R   0.859986 0.886588 0.688224 -0.206981
C22   C     C_R   0.139232 0.363562 0.312254 -0.208439
C23   C     C_R   0.829954 0.872643 0.590558 0.098899
C24   C     C_R   0.169921 0.378369 0.409777 0.098126
C25   C     C_R   0.869694 0.856907 0.530892 0.130437
C26   C     C_R   0.131274 0.415502 0.469311 0.131543
C27   C     C_R   0.762233 0.873313 0.550329 0.022131
C28   C     C_R   0.237361 0.360581 0.449892 0.021369
C29   C     C_R   0.735622 0.860195 0.450950 0.052581
C30   C     C_R   0.264696 0.378375 0.549002 0.053560
C31   C     C_R   0.777590 0.844075 0.395061 -0.156269
C32   C     C_R   0.223684 0.413376 0.604832 -0.153296
C33   C     C_R   0.843010 0.842586 0.434410 -0.185244
C34   C     C_R   0.158583 0.431369 0.565608 -0.184096
C35   C     C_R   0.720396 0.885683 0.606293 -0.196953
C36   C     C_R   0.278274 0.327319 0.394022 -0.197051
C37   C     C_R   0.654720 0.885761 0.567771 0.139265
C38   C     C_R   0.343663 0.310187 0.432400 0.140677
C39   C     C_R   0.627745 0.874507 0.470265 0.081301
C40   C     C_R   0.371250 0.324981 0.529675 0.080851
C41   C     C_R   0.667978 0.862500 0.410731 0.056665
C42   C     C_R   0.332057 0.360242 0.589074 0.056437
C43   C     C_R   0.561117 0.875071 0.430855 -0.102116
C44   C     C_R   0.437395 0.303195 0.569049 -0.102471
C45   C     C_R   0.533964 0.864457 0.334328 -0.136996
C46   C     C_R   0.464967 0.313015 0.665481 -0.136828
C47   C     C_R   0.638709 0.853757 0.312711 -0.186972
C48   C     C_R   0.361948 0.373339 0.686890 -0.184472
H7    H     H_    0.873107 0.829735 0.388526 0.141829
H8    H     H_    0.129272 0.459399 0.611398 0.137585
H9    H     H_    0.665404 0.847183 0.262633 0.105359
H10   H     H_    0.335970 0.397577 0.736865 0.104799
H11   H     H_    0.482661 0.864848 0.305501 0.143592
H12   H     H_    0.515698 0.291764 0.694377 0.145775
H13   H     H_    0.966545 0.842315 0.522672 0.120762
H14   H     H_    0.035876 0.468916 0.477376 0.120782
H15   H     H_    0.015647 0.865191 0.692332 0.124245
H16   H     H_    0.986162 0.452600 0.307796 0.127906
H17   H     H_    0.833788 0.899413 0.738747 0.098928
H18   H     H_    0.164640 0.336221 0.261826 0.102239
H19   H     H_    0.761797 0.830886 0.319994 0.147177
H20   H     H_    0.240038 0.429087 0.679754 0.140529
H21   H     H_    0.737004 0.894665 0.681426 0.150835
H22   H     H_    0.261131 0.313759 0.319088 0.151341
H23   H     H_    0.529178 0.883765 0.473786 0.168266
H24   H     H_    0.468511 0.275436 0.526272 0.168507
O11   O     O_R   0.036450 0.233070 0.130130 -0.538898
O12   O     O_R   0.963550 0.733070 0.869870 -0.539017
O13   O     O_R   0.912470 0.560570 0.006790 -0.523695
O14   O     O_R   0.087530 0.060570 0.993210 -0.523844
C49   C     C_R   0.887693 0.391759 0.005565 0.699879
C50   C     C_R   0.112332 0.892000 0.994476 0.698431
O15   O     O_R   0.032920 0.562940 0.138050 -0.538140
O16   O     O_R   0.967080 0.062940 0.861950 -0.537646
O17   O     O_R   0.084790 0.730500 0.002090 -0.546373
O18   O     O_R   0.915210 0.230500 0.997910 -0.546333
C51   C     C_R   0.044966 0.395064 0.174501 0.689057
C52   C     C_R   0.955104 0.893926 0.825579 0.688566
O19   O     O_3   0.016820 0.396170 0.955260 -0.373029
O20   O     O_3   0.983180 0.896170 0.044740 -0.372865
V3    V     V_3+5 0.996880 0.672090 0.008300 1.477280
V4    V     V_3+5 0.003120 0.172090 0.991700 1.477599
I1    I     I_    0.196108 0.104503 0.895472 -0.462793
I2    I     I_    0.805126 0.601172 0.107842 -0.472352
I3    I     I_    0.600095 0.903827 0.664689 -0.468045
I4    I     I_    0.396866 0.260421 0.335655 -0.467929

loop_
_geom_bond_atom_site_label_1
_geom_bond_atom_site_label_2
_ccdc_geom_bond_type
C40   C44   A    
O11   C51   A    
O1    C3    A    
C46   H12   S    
O2    C4    A    
C16   C48   A    
C2    O7    A    
C15   C47   A    
C21   C23   A    
C20   H16   S    
O5    C3    A    
C14   C51   S    
C5    C9    S    
C6    C10   S    
C21   H17   S    
C17   C19   A    
C10   C12   D    
C39   C41   A    
C8    I2    S    
C40   C42   A    
C13   C52   S    
C37   I3    S    
O16   C52   A    
C35   H21   S    
C24   C28   A    
C27   C29   A    
C49   O18   A    
C43   C45   A    
C44   C46   A    
C17   H13   S    
C13   C21   A    
C31   C33   A    
C32   C34   A    
C9    H3    S    
C17   C25   A    
O17   V3    S    
C34   H8    S    
C15   C45   A    
C26   C34   A    
C30   C32   A    
C19   H15   S    
C42   C48   A    
O6    V2    S    
C23   C25   A    
C24   C26   A    
C30   C42   A    
O13   V3    S    
C35   C37   A    
C11   H5    S    
C36   C38   A    
C38   I4    S    
C29   C31   A    
C43   H23   S    
O5    V1    S    
C3    C12   S    
O15   C51   A    
C27   C35   A    
C5    H1    S    
C31   H19   S    
O4    V2    S    
O2    V1    S    
O18   V4    S    
O6    C4    A    
C1    C16   S    
C28   C36   A    
C16   C46   A    
O1    V2    S    
C33   H7    S    
O12   V3    S    
O14   V4    S    
O12   C52   A    
O4    C2    A    
O14   C50   A    
C12   H6    S    
C14   C20   A    
C37   C39   A    
C22   H18   S    
C18   C26   A    
C36   H22   S    
O19   V4    S    
O3    V1    S    
O16   V4    S    
C50   O17   A    
C44   H24   S    
C18   H14   S    
C6    H2    S    
C10   H4    S    
C45   H11   S    
O3    C1    A    
C32   H20   S    
C39   C43   A    
C8    C49   S    
C2    C15   S    
C4    C11   S    
C18   C20   A    
O7    V1    S    
C1    O8    A    
O11   V4    S    
O8    V2    S    
C41   C47   A    
C7    I1    S    
C25   C33   A    
C48   H10   S    
C47   H9    S    
C22   C24   A    
C5    C7    D    
C38   C40   A    
C6    C8    D    
C14   C22   A    
C29   C41   A    
C28   C30   A    
C13   C19   A    
C9    C11   D    
O20   V3    S    
O9    V2    S    
C7    C50   S    
O13   C49   A    
C23   C27   A    
O10   V1    S    
O15   V3    S    
