data_str_m2_o4_o17_f0_pcu.sym.137
_audit_creation_date              2012-12-10T19:00:43-0500
_audit_creation_method            fapswitch 2.2
_symmetry_space_group_name_H-M    P1
_symmetry_Int_Tables_number       1
_space_group_crystal_system       triclinic
_cell_length_a                    15.046202
_cell_length_b                    10.826955
_cell_length_c                    9.524855
_cell_angle_alpha                 90.04808
_cell_angle_beta                  90.54047
_cell_angle_gamma                 90.353696
_cell_volume                      1551.54301516

loop_
_atom_site_label
_atom_site_type_symbol
_atom_type_description
_atom_site_fract_x
_atom_site_fract_y
_atom_site_fract_z
_atom_type_partial_charge
C1    C     C_R   0.500969 0.262206 0.499599 0.825242
C2    C     C_R   0.907847 0.552778 0.612913 0.098575
C3    C     C_R   0.950986 0.397429 0.271769 -0.333547
C4    C     C_R   0.044472 0.399578 0.267147 0.447130
C5    C     C_R   0.092169 0.450945 0.381848 0.030998
C6    C     C_R   0.046621 0.503096 0.497005 -0.062625
C7    C     C_R   0.094158 0.556198 0.611396 0.122241
C8    C     C_R   0.047980 0.610660 0.723584 0.139530
C9    C     C_R   0.955078 0.607468 0.724062 -0.288551
C10   C     C_R   0.185070 0.451715 0.383601 -0.194446
C11   C     C_R   0.231995 0.501639 0.497934 -0.113372
C12   C     C_R   0.328686 0.500160 0.499379 0.814802
C13   C     C_R   0.186895 0.553755 0.610812 -0.214385
C14   C     C_R   0.497928 0.063100 0.623466 -0.019840
C15   C     C_R   0.508068 0.128858 0.498522 -0.153734
C16   C     C_R   0.531290 0.063435 0.375234 0.418981
C17   C     C_R   0.529771 0.934081 0.376932 -0.322426
C18   C     C_R   0.509297 0.870176 0.500671 -0.147362
C19   C     C_R   0.500271 0.936413 0.625058 0.113410
C20   C     C_3   0.434205 0.927070 0.741444 -0.000617
C21   C     C_3   0.430434 0.068899 0.738583 -0.093979
C22   C     C_R   0.534525 0.597950 0.074407 0.202846
C23   C     C_R   0.501272 0.737485 0.500096 0.852518
C24   C     C_R   0.456891 0.410400 0.073785 -0.068021
C25   C     C_R   0.456855 0.410463 0.924785 -0.099732
C26   C     C_R   0.534917 0.597845 0.927052 0.262488
C27   C     C_3   0.628155 0.646073 0.923546 0.220229
C28   C     C_3   0.626961 0.647069 0.083802 -0.591827
C29   C     C_R   0.671323 0.499351 0.500440 0.793707
C30   C     C_R   0.815332 0.548937 0.614240 -0.258185
C31   C     C_R   0.768013 0.498447 0.500783 -0.058013
C32   C     C_R   0.813160 0.448744 0.386274 -0.235712
C33   C     C_R   0.905806 0.449239 0.384740 0.063274
C34   C     C_R   0.953507 0.501964 0.498040 0.066289
Cu1   Cu    Cu3+1 0.500000 0.499980 0.640670 0.957153
Cu2   Cu    Cu3+1 0.500000 0.500020 0.359330 0.954060
H1    H     H_    0.780092 0.587874 0.701840 0.146840
H2    H     H_    0.540660 0.884546 0.279879 0.173508
H3    H     H_    0.463798 0.889086 0.839606 0.170308
H4    H     H_    0.456435 0.113480 0.836060 0.129104
H5    H     H_    0.423536 0.336540 0.129067 0.169390
H6    H     H_    0.423096 0.337108 0.868494 0.141818
H7    H     H_    0.674814 0.578613 0.876842 0.096034
H8    H     H_    0.674292 0.580065 0.130810 0.188668
H9    H     H_    0.776105 0.408806 0.298987 0.147116
H10   H     H_    0.628876 0.740660 0.131583 0.195275
H11   H     H_    0.913156 0.354572 0.187810 0.146282
H12   H     H_    0.221454 0.412091 0.297005 0.192070
H13   H     H_    0.224622 0.593364 0.697454 0.194319
H14   H     H_    0.919991 0.648238 0.811339 0.134031
N1    N     N_R   0.500570 0.500930 0.147930 -0.189985
N2    N     N_R   0.500570 0.500890 0.852020 -0.216375
O1    O     O_R   0.500000 0.319640 0.618810 -0.602301
O2    O     O_R   0.500010 0.319680 0.381230 -0.542847
O3    O     O_R   0.370250 0.499950 0.618800 -0.583063
O4    O     O_R   0.370260 0.499990 0.381220 -0.583100
O5    O     O_R   0.499990 0.680320 0.618770 -0.540055
O6    O     O_R   0.500000 0.680360 0.381190 -0.587790
O7    O     O_R   0.629740 0.500010 0.618780 -0.589575
O8    O     O_R   0.629750 0.500050 0.381200 -0.590454
N3    N     N_3   0.352217 0.862487 0.698771 -0.565135
H15   H     H_    0.327738 0.897406 0.603671 0.256879
H16   H     H_    0.304394 0.877513 0.775714 0.228284
N4    N     N_3   0.344894 0.117843 0.690655 -0.575997
H17   H     H_    0.299807 0.106295 0.772514 0.218281
H18   H     H_    0.351594 0.213123 0.677254 0.231631
O9    O     O_3   0.630346 0.765044 0.862609 -0.573332
C35   C     C_3   0.716047 0.818202 0.878122 0.087690
H19   H     H_    0.770603 0.749869 0.867142 0.110469
H20   H     H_    0.722096 0.861159 0.983829 0.104679
C36   C     C_3   0.728488 0.919968 0.768604 -0.340342
H21   H     H_    0.670928 0.983733 0.771460 0.222126
H22   H     H_    0.789369 0.974228 0.794740 0.167687
C37   C     C_3   0.738149 0.867148 0.620852 -0.794762
H23   H     H_    0.802462 0.818184 0.611883 0.239431
H24   H     H_    0.736778 0.943411 0.542981 0.221985
H25   H     H_    0.683242 0.801617 0.596094 0.267923
O10   O     O_3   0.091124 0.341463 0.160167 -0.622983
C38   C     C_3   0.056851 0.368035 0.024353 0.055330
H26   H     H_    0.113271 0.399287 0.958555 0.170465
H27   H     H_    0.007562 0.444527 0.021390 0.124170
C39   C     C_3   0.017580 0.250470 0.958348 -0.345602
H28   H     H_    0.071119 0.181138 0.945862 0.223139
H29   H     H_    0.966299 0.210194 0.028077 0.218909
C40   C     C_3   0.975521 0.276592 0.815095 -0.899952
H30   H     H_    0.920070 0.343082 0.825853 0.260147
H31   H     H_    0.948584 0.189455 0.769661 0.253241
H32   H     H_    0.025902 0.315014 0.742425 0.265361
N5    N     N_3   0.095131 0.671285 0.835829 -0.616922
H33   H     H_    0.075254 0.763631 0.837788 0.223173
H34   H     H_    0.076003 0.631025 0.930559 0.207409
O11   O     O_3   0.544120 0.124449 0.249335 -0.597501
C41   C     C_3   0.634860 0.118871 0.213613 0.059297
H35   H     H_    0.653888 0.022263 0.187855 0.130054
H36   H     H_    0.677690 0.153968 0.301464 0.127776
C42   C     C_3   0.650593 0.199806 0.084663 -0.296554
H37   H     H_    0.606881 0.168079 0.996843 0.213122
H38   H     H_    0.633697 0.297049 0.110004 0.229622
C43   C     C_3   0.747213 0.194602 0.038168 -0.981190
H39   H     H_    0.791789 0.226778 0.124189 0.251061
H40   H     H_    0.756820 0.255084 0.945359 0.263359
H41   H     H_    0.765307 0.098703 0.009586 0.251253

loop_
_geom_bond_atom_site_label_1
_geom_bond_atom_site_label_2
_ccdc_geom_bond_type
C8    C9    A    
C23   O6    A    
C41   H35   S    
Cu1   O1    S    
C32   H9    S    
C19   C20   S    
C7    C8    A    
C40   H30   S    
C28   H10   S    
C26   C27   S    
C37   H24   S    
C14   C21   S    
Cu2   O6    S    
C35   C36   S    
C5    C6    A    
C3    C33   A    
C15   C16   A    
C42   C43   S    
Cu1   O7    S    
C18   C19   A    
C20   N3    S    
N3    H16   S    
C1    O1    A    
C21   N4    S    
C29   O7    A    
C16   C17   A    
C37   H25   S    
C42   H38   S    
C1    C15   S    
N5    H34   S    
C2    C34   A    
C24   N1    A    
C41   H36   S    
C22   C28   S    
C24   H5    S    
C17   C18   A    
C40   H31   S    
C37   H23   S    
Cu1   O3    S    
O9    C35   S    
Cu2   O2    S    
C24   C25   A    
C38   H27   S    
C20   H3    S    
O10   C38   S    
C35   H19   S    
C28   H8    S    
C6    C34   A    
C30   H1    S    
Cu1   Cu2   S    
N4    H18   S    
C1    O2    A    
C4    O10   S    
Cu2   O4    S    
C26   N2    A    
C36   C37   S    
C43   H39   S    
C29   O8    A    
C42   H37   S    
C33   C34   A    
C12   O4    A    
Cu2   N1    S    
C13   H13   S    
C43   H40   S    
C16   O11   S    
C41   C42   S    
C39   H29   S    
C10   H12   S    
C3    C4    A    
Cu1   N2    S    
C36   H22   S    
C40   H32   S    
C23   O5    A    
C14   C19   A    
C31   C32   A    
C9    H14   S    
C4    C5    A    
Cu2   O8    S    
C25   H6    S    
C38   C39   S    
C11   C12   S    
C6    C7    A    
C39   C40   S    
C2    C30   A    
Cu1   O5    S    
N4    H17   S    
C25   N2    A    
C5    C10   A    
C29   C31   S    
C32   C33   A    
C11   C13   A    
C30   C31   A    
C21   H4    S    
C18   C23   S    
C3    H11   S    
O11   C41   S    
C17   H2    S    
N3    H15   S    
C12   O3    A    
C27   O9    S    
C10   C11   A    
C38   H26   S    
C27   H7    S    
C7    C13   A    
C43   H41   S    
C36   H21   S    
C20   C21   S    
C35   H20   S    
C39   H28   S    
C22   C26   A    
C27   C28   S    
C14   C15   A    
C8    N5    S    
N5    H33   S    
C2    C9    A    
C22   N1    A    
