data_str_m3_o14_o18_f0_pcu.sym.21
_audit_creation_date              2012-12-10T17:44:33-0500
_audit_creation_method            fapswitch 2.2
_symmetry_space_group_name_H-M    P1
_symmetry_Int_Tables_number       1
_space_group_crystal_system       triclinic
_cell_length_a                    9.928183
_cell_length_b                    10.732565
_cell_length_c                    15.515454
_cell_angle_alpha                 92.639723
_cell_angle_beta                  68.426105
_cell_angle_gamma                 91.777854
_cell_volume                      1535.61942027

loop_
_atom_site_label
_atom_site_type_symbol
_atom_type_description
_atom_site_fract_x
_atom_site_fract_y
_atom_site_fract_z
_atom_type_partial_charge
C1    C     C_R   0.505688 0.738976 0.492539 0.857686
C2    C     C_R   0.716579 0.554538 0.033856 0.137890
C3    C     C_R   0.578940 0.505696 0.087572 0.102653
C4    C     C_R   0.409921 0.489871 0.674607 0.854723
C5    C     C_R   0.814820 0.591349 0.076146 -0.254935
C6    C     C_R   0.780894 0.576032 0.171238 0.167385
C7    C     C_R   0.551130 0.480245 0.179600 -0.297433
C8    C     C_R   0.326332 0.866368 0.410216 -0.202929
C9    C     C_R   0.196543 0.914026 0.412491 -0.134075
C10   C     C_R   0.148815 0.028986 0.457547 0.230008
C11   C     C_R   0.240017 0.099892 0.492622 -0.245001
C12   C     C_R   0.412782 0.454363 0.909735 0.096119
C13   C     C_R   0.376898 0.054778 0.485790 0.079360
C14   C     C_R   0.407664 0.930179 0.457109 0.100179
C15   C     C_R   0.513115 0.871211 0.481662 -0.118755
C16   C     C_R   0.494139 0.259782 0.504613 0.868657
C17   C     C_R   0.607470 0.939865 0.513879 -0.214156
C18   C     C_R   0.595276 0.066736 0.524829 -0.218223
C19   C     C_R   0.483358 0.125725 0.509105 -0.110682
C20   C     C_R   0.796595 0.665081 0.621498 -0.170411
C21   C     C_R   0.834303 0.743747 0.683083 -0.221965
C22   C     C_R   0.972164 0.740095 0.685456 -0.196904
C23   C     C_R   0.263669 0.453224 0.965228 0.134961
C24   C     C_R   0.073781 0.658878 0.625430 -0.137832
C25   C     C_R   0.039684 0.578432 0.561761 0.144901
C26   C     C_R   0.895871 0.579925 0.560741 0.167437
C27   C     C_R   0.959134 0.427055 0.439760 -0.118425
C28   C     C_R   0.591059 0.504059 0.324275 0.868138
C29   C     C_R   0.102903 0.426855 0.438578 0.009270
C30   C     C_R   0.355269 0.463387 0.773105 -0.157900
C31   C     C_R   0.646511 0.517807 0.223301 -0.096313
C32   C     C_R   0.160903 0.455781 0.923039 -0.205119
C33   C     C_R   0.207230 0.471745 0.827731 -0.195091
C34   C     C_R   0.515709 0.485343 0.950515 0.100226
C35   C     C_R   0.452747 0.429550 0.814312 -0.086086
C36   C     C_3   0.998793 0.073542 0.472112 -0.435842
C37   C     C_3   0.968130 0.069487 0.382295 -0.810935
C38   C     C_2   0.208189 0.345134 0.368238 0.362870
C39   C     C_3   0.888568 0.625577 0.213276 -0.413114
C40   C     C_3   0.837890 0.747051 0.269412 -0.796569
C41   C     C_2   0.575900 0.344202 0.763521 0.380286
C42   C     C_R   0.472842 0.483171 0.047764 0.049228
C43   C     C_R   0.323899 0.467067 0.102266 -0.180328
C44   C     C_R   0.220683 0.454405 0.061309 -0.225057
C45   C     C_R   0.655501 0.530934 0.897270 -0.130457
C46   C     C_R   0.753329 0.567720 0.938892 -0.237298
H1    H     H_    0.107112 0.448153 0.104836 0.153458
H2    H     H_    0.755905 0.808041 0.729204 0.162262
H3    H     H_    0.454446 0.428900 0.218513 0.184245
H4    H     H_    0.001067 0.801280 0.733597 0.155001
H5    H     H_    0.177988 0.662309 0.630398 0.206304
H6    H     H_    0.858290 0.605323 0.896535 0.147012
H7    H     H_    0.046318 0.454030 0.963992 0.153121
H8    H     H_    0.127981 0.488386 0.796891 0.169210
H9    H     H_    0.283028 0.475269 0.176921 0.188362
H10   H     H_    0.687757 0.544215 0.823643 0.165295
H11   H     H_    0.065007 0.097752 0.322607 0.305689
H12   H     H_    0.916744 0.635383 0.035267 0.137548
H13   H     H_    0.935249 0.973761 0.367500 0.238238
H14   H     H_    0.878228 0.132974 0.389441 0.257534
H15   H     H_    0.917963 0.013433 0.523076 0.205083
H16   H     H_    0.983500 0.170429 0.502126 0.204074
H17   H     H_    0.305709 0.316646 0.375884 0.149870
H18   H     H_    0.725082 0.738328 0.319056 0.253344
H19   H     H_    0.909297 0.771376 0.308565 0.236370
H20   H     H_    0.843428 0.823539 0.222316 0.250617
H21   H     H_    0.910654 0.554506 0.255832 0.227543
H22   H     H_    0.995060 0.645812 0.158084 0.195893
H23   H     H_    0.688751 0.895409 0.532695 0.168862
H24   H     H_    0.599988 0.315949 0.691552 0.100518
H25   H     H_    0.359880 0.777285 0.374146 0.170314
H26   H     H_    0.131068 0.858728 0.382129 0.144401
H27   H     H_    0.196264 0.184647 0.531470 0.167051
H28   H     H_    0.672736 0.118754 0.547119 0.173462
H29   H     H_    0.928560 0.367651 0.391473 0.187746
H30   H     H_    0.689466 0.674862 0.622843 0.209001
N1    N     N_R   0.856800 0.501200 0.500850 -0.142331
N2    N     N_R   0.142390 0.501280 0.500880 -0.171325
O1    O     O_R   0.385310 0.683220 0.500000 -0.631506
O2    O     O_2   0.645567 0.296225 0.803362 -0.572188
O3    O     O_R   0.614640 0.683250 0.500010 -0.634365
O4    O     O_R   0.319840 0.499980 0.632240 -0.625559
O5    O     O_R   0.549160 0.500000 0.632250 -0.650192
O6    O     O_R   0.385360 0.316750 0.499990 -0.655169
O7    O     O_R   0.614690 0.316780 0.500000 -0.623709
O8    O     O_R   0.450840 0.500000 0.367750 -0.645525
O9    O     O_R   0.680160 0.500020 0.367760 -0.601879
O10   O     O_2   0.186561 0.307348 0.298986 -0.637548
Zn1   Zn    Zn3+2 0.346880 0.499980 0.499990 0.907218
Zn2   Zn    Zn3+2 0.653120 0.500020 0.500010 0.916510

loop_
_geom_bond_atom_site_label_1
_geom_bond_atom_site_label_2
_ccdc_geom_bond_type
C3    C42   A    
C17   H23   S    
C27   C29   A    
C39   H22   S    
C34   C42   A    
C9    H26   S    
C41   O2    D    
C45   C46   A    
C2    C46   A    
C12   C23   A    
O4    Zn1   S    
C5    H12   S    
C36   C37   S    
C3    C7    A    
C5    C6    A    
C27   H29   S    
C1    O3    A    
C46   H6    S    
C16   O6    A    
C20   H30   S    
C18   C19   A    
C29   N2    A    
C45   H10   S    
C8    C9    A    
C29   C38   S    
C1    C15   S    
C9    C10   A    
C44   H1    S    
C22   H4    S    
C21   H2    S    
C24   H5    S    
C6    C31   A    
C18   H28   S    
C40   H20   S    
C21   C22   A    
C36   H16   S    
N2    Zn1   S    
N1    Zn2   S    
C26   N1    A    
C7    C31   A    
C13   C19   A    
C25   N2    A    
C24   C25   A    
C7    H3    S    
C11   H27   S    
C39   C40   S    
C25   C26   A    
C23   C44   A    
C38   O10   D    
C43   C44   A    
C28   O9    A    
C17   C18   A    
C34   C45   A    
C12   C35   A    
C37   H13   S    
O3    Zn2   S    
C30   C35   A    
C43   H9    S    
C40   H19   S    
C28   O8    A    
C16   O7    A    
C1    O1    A    
C22   C24   A    
C2    C5    A    
C42   C43   A    
C12   C34   A    
C36   H15   S    
C32   H7    S    
C38   H17   S    
C33   H8    S    
C15   C17   A    
O5    Zn2   S    
C8    H25   S    
C8    C14   A    
C30   C33   A    
C6    C39   S    
C39   H21   S    
C28   C31   S    
C27   N1    A    
O8    Zn1   S    
O7    Zn2   S    
C40   H18   S    
C23   C32   A    
C2    C3    A    
C32   C33   A    
C11   C13   A    
C4    O5    A    
C20   C26   A    
C16   C19   S    
C35   C41   S    
C37   H11   S    
O1    Zn1   S    
C37   H14   S    
C10   C11   A    
C4    O4    A    
C20   C21   A    
O6    Zn1   S    
O9    Zn2   S    
C14   C15   A    
C10   C36   S    
C13   C14   A    
C4    C30   S    
C41   H24   S    
