data_str_m3_o1_o22_f0_pcu.sym.2
_audit_creation_date              2012-12-10T18:50:00-0500
_audit_creation_method            fapswitch 2.2
_symmetry_space_group_name_H-M    P1
_symmetry_Int_Tables_number       1
_space_group_crystal_system       triclinic
_cell_length_a                    10.754024
_cell_length_b                    9.963785
_cell_length_c                    10.718957
_cell_angle_alpha                 90.420465
_cell_angle_beta                  92.732756
_cell_angle_gamma                 91.849269
_cell_volume                      1146.59565544

loop_
_atom_site_label
_atom_site_type_symbol
_atom_type_description
_atom_site_fract_x
_atom_site_fract_y
_atom_site_fract_z
_atom_type_partial_charge
C1    C     C_R   0.260813 0.498317 0.501747 0.914546
C2    C     C_R   0.573915 0.932275 0.584256 0.404613
C3    C     C_R   0.423967 0.926094 0.417101 0.430672
C4    C     C_R   0.422776 0.067827 0.418495 0.385430
C5    C     C_R   0.499768 0.499221 0.258319 0.919553
C6    C     C_R   0.739750 0.502433 0.496956 0.871689
C7    C     C_R   0.498090 0.499007 0.742037 0.830776
C8    C     C_3   0.379186 0.568029 0.068390 0.349084
C9    C     C_3   0.497797 0.348393 0.073252 0.273987
C10   C     C_3   0.369033 0.548232 0.923387 -0.292436
C11   C     C_3   0.515193 0.346650 0.931703 -0.292309
C12   C     C_3   0.609783 0.584631 0.935440 0.826805
C13   C     C_3   0.614900 0.573169 0.079514 -0.612542
C14   C     C_3   0.496920 0.496669 0.122144 -0.119379
C15   C     C_3   0.496083 0.494198 0.879204 -0.267184
C16   C     C_2   0.257812 0.462896 0.870845 0.616250
C17   C     C_2   0.441299 0.229035 0.869422 0.597171
C18   C     C_2   0.855196 0.317964 0.331028 0.498183
C19   C     C_2   0.889210 0.720041 0.623966 0.584321
C20   C     C_R   0.060575 0.409935 0.420164 0.434655
C21   C     C_R   0.071318 0.593144 0.575946 0.393434
C22   C     C_R   0.930512 0.412224 0.415312 -0.122075
C23   C     C_R   0.944048 0.604050 0.562611 -0.090376
C24   C     C_R   0.873054 0.508369 0.489150 -0.296476
C25   C     C_R   0.128650 0.495883 0.504237 -0.252522
C26   C     C_R   0.575707 0.073988 0.583007 0.433414
H1    H     H_    0.392661 0.678213 0.087121 0.085632
H2    H     H_    0.405345 0.184037 0.113144 0.380460
H3    H     H_    0.246765 0.447294 0.770844 -0.054626
H4    H     H_    0.354926 0.242375 0.815899 0.083445
H5    H     H_    0.533290 0.762210 0.945756 0.333307
H6    H     H_    0.729584 0.563961 0.804943 0.358658
H7    H     H_    0.076643 0.323279 0.258630 0.393870
H8    H     H_    0.215897 0.647767 0.684884 0.328101
H9    H     H_    0.769552 0.350347 0.284696 0.036724
H10   H     H_    0.839012 0.791836 0.567274 0.086917
H11   H     H_    0.653296 0.235128 0.656592 0.382585
H12   H     H_    0.579028 0.297323 0.118890 0.104729
H13   H     H_    0.647941 0.777210 0.656851 0.378262
H14   H     H_    0.354964 0.649023 0.882128 0.126712
H15   H     H_    0.614056 0.322426 0.918084 0.207269
H16   H     H_    0.624576 0.674800 0.123522 0.219580
H17   H     H_    0.698911 0.518679 0.112765 0.207726
H18   H     H_    0.347002 0.765045 0.343341 0.374049
H19   H     H_    0.345539 0.223629 0.349321 0.422427
H20   H     H_    0.261541 0.580924 0.201464 0.326877
N1    N     N_R   0.499970 0.857200 0.499970 -0.281791
N2    N     N_R   0.499970 0.142800 0.499970 -0.293482
O1    O     O_R   0.316750 0.614620 0.499990 -0.637890
O2    O     O_3   0.339359 0.126336 0.336299 -0.636482
O3    O     O_3   0.271151 0.522982 0.127047 -0.622392
O4    O     O_3   0.386254 0.280303 0.103307 -0.630935
O5    O     O_2   0.181775 0.407779 0.935980 -0.422431
O6    O     O_2   0.478384 0.115074 0.881548 -0.525757
O7    O     O_3   0.600329 0.720615 0.900123 -0.669130
O8    O     O_3   0.723113 0.537766 0.893527 -0.707229
O9    O     O_3   0.124358 0.330874 0.339821 -0.668854
O10   O     O_3   0.136855 0.685341 0.653545 -0.686662
O11   O     O_2   0.886099 0.202375 0.315705 -0.502849
O12   O     O_R   0.316750 0.385380 0.499990 -0.586095
O13   O     O_2   0.905043 0.739328 0.736306 -0.444865
O14   O     O_3   0.656523 0.138297 0.668976 -0.649813
O15   O     O_3   0.648364 0.873672 0.674473 -0.624147
O16   O     O_R   0.499970 0.614670 0.314790 -0.662136
O17   O     O_R   0.499970 0.385330 0.314790 -0.619781
O18   O     O_R   0.683220 0.614710 0.500010 -0.670599
O19   O     O_R   0.683220 0.385290 0.500010 -0.630874
O20   O     O_R   0.500010 0.614660 0.685200 -0.599796
O21   O     O_R   0.500010 0.385340 0.685200 -0.668305
O22   O     O_3   0.344396 0.861783 0.330056 -0.684346
Zn1   Zn    Zn3+2 0.499980 0.653120 0.500000 0.953958
Zn2   Zn    Zn3+2 0.499980 0.346880 0.500000 0.970695

loop_
_geom_bond_atom_site_label_1
_geom_bond_atom_site_label_2
_ccdc_geom_bond_type
C7    O21   A    
O21   Zn2   S    
C19   C23   S    
C9    C14   S    
H18   O22   S    
C2    N1    A    
O17   Zn2   S    
H13   O15   S    
C18   H9    S    
O18   Zn1   S    
C12   C15   S    
C26   N2    A    
C23   C24   A    
C6    C24   S    
C7    C15   S    
H11   O14   S    
C20   O9    S    
C6    O19   A    
C21   O10   S    
C2    C26   A    
C10   C16   S    
C13   C14   S    
C2    O15   S    
C1    C25   S    
C17   H4    S    
H2    O4    S    
C8    O3    S    
N1    Zn1   S    
C5    C14   S    
C12   O8    S    
C9    O4    S    
O1    Zn1   S    
H19   O2    S    
C19   O13   D    
O20   Zn1   S    
C5    O16   A    
C17   O6    D    
C8    C10   S    
C13   H16   S    
C20   C22   A    
C11   H15   S    
C11   C15   S    
C19   H10   S    
C9    C11   S    
C21   C23   A    
C26   O14   S    
C22   C24   A    
O16   Zn1   S    
C12   O7    S    
C20   C25   A    
O12   Zn2   S    
C3    C4    A    
C18   O11   D    
C13   H17   S    
C3    O22   S    
C12   C13   S    
C16   H3    S    
N2    Zn2   S    
C5    O17   A    
O19   Zn2   S    
C4    N2    A    
C1    O12   A    
C3    N1    A    
H8    O10   S    
C8    H1    S    
C21   C25   A    
C16   O5    D    
C9    H12   S    
C10   H14   S    
H7    O9    S    
C8    C14   S    
H5    O7    S    
C7    O20   A    
C18   C22   S    
C1    O1    A    
H20   O3    S    
H6    O8    S    
C11   C17   S    
C6    O18   A    
C4    O2    S    
C10   C15   S    
