data_str_m3_o14_o16_f0_pcu.sym.123
_audit_creation_date              2012-12-10T17:42:36-0500
_audit_creation_method            fapswitch 2.2
_symmetry_space_group_name_H-M    P1
_symmetry_Int_Tables_number       1
_space_group_crystal_system       triclinic
_cell_length_a                    9.925812
_cell_length_b                    10.671807
_cell_length_c                    13.085352
_cell_angle_alpha                 92.394069
_cell_angle_beta                  70.671476
_cell_angle_gamma                 91.237367
_cell_volume                      1306.77276398

loop_
_atom_site_label
_atom_site_type_symbol
_atom_type_description
_atom_site_fract_x
_atom_site_fract_y
_atom_site_fract_z
_atom_type_partial_charge
C1    C     C_R   0.504794 0.739443 0.491235 0.853190
C2    C     C_R   0.366421 0.492891 0.822379 -0.113366
C3    C     C_R   0.312291 0.877513 0.405309 -0.147145
C4    C     C_R   0.420232 0.501223 0.704374 0.847816
C5    C     C_R   0.184404 0.931019 0.408288 -0.153805
C6    C     C_R   0.136623 0.039148 0.471802 -0.198953
C7    C     C_R   0.223661 0.101400 0.523148 0.027471
C8    C     C_R   0.364861 0.057311 0.505543 0.052815
C9    C     C_R   0.396586 0.935114 0.462927 0.086422
C10   C     C_R   0.508744 0.873148 0.483541 -0.105183
C11   C     C_R   0.608580 0.939648 0.518888 -0.226533
C12   C     C_R   0.419231 0.509319 0.990809 0.090706
C13   C     C_R   0.596528 0.066898 0.535411 -0.190847
C14   C     C_R   0.478393 0.127367 0.525249 -0.131214
C15   C     C_R   0.813937 0.684682 0.622947 -0.173874
C16   C     C_R   0.492670 0.260698 0.510684 0.890308
C17   C     C_R   0.864608 0.781771 0.675101 -0.266679
C18   C     C_R   0.001123 0.776219 0.681242 0.035722
C19   C     C_R   0.088519 0.675810 0.630955 -0.179549
C20   C     C_R   0.047099 0.587330 0.563950 0.149860
C21   C     C_R   0.903852 0.589283 0.562100 0.151857
C22   C     C_R   0.954067 0.416027 0.438161 0.008951
C23   C     C_R   0.438147 0.553285 0.886842 0.059980
C24   C     C_R   0.097065 0.416401 0.438337 -0.148477
C25   C     C_R   0.578862 0.500946 0.296213 0.886008
C26   C     C_R   0.717797 0.686986 0.049765 0.105020
C27   C     C_R   0.623778 0.528375 0.182559 -0.093554
C28   C     C_R   0.252792 0.411017 0.869536 -0.213772
C29   C     C_R   0.214149 0.386329 0.978870 -0.184453
C30   C     C_R   0.296255 0.433959 0.040655 0.095502
C31   C     C_1   0.154444 0.192754 0.607877 0.205952
C32   C     C_1   0.913259 0.326450 0.368403 0.199529
C33   C     C_1   0.051449 0.872748 0.740298 0.139384
C34   C     C_R   0.522961 0.545658 0.039518 0.056090
C35   C     C_R   0.617980 0.647425 0.998687 0.141178
C36   C     C_R   0.609317 0.708583 0.908830 -0.212354
C37   C     C_R   0.524173 0.659408 0.851271 -0.211712
C38   C     C_R   0.538489 0.480563 0.124893 -0.220703
C39   C     C_R   0.716927 0.628612 0.143880 -0.240509
H1    H     H_    0.782155 0.665878 0.190272 0.151553
H2    H     H_    0.172214 0.348452 0.388157 0.152586
H3    H     H_    0.479621 0.395236 0.152231 0.169052
H4    H     H_    0.194183 0.365691 0.821793 0.187005
H5    H     H_    0.121268 0.328141 0.015593 0.159804
H6    H     H_    0.520365 0.707639 0.781345 0.133230
H7    H     H_    0.696217 0.893751 0.533733 0.168646
H8    H     H_    0.890280 0.755939 0.936172 0.194389
H9    H     H_    0.872013 0.813013 0.061045 0.190426
H10   H     H_    0.231985 0.321433 0.168723 0.177535
H11   H     H_    0.142978 0.458206 0.186599 0.193421
H12   H     H_    0.344380 0.790845 0.358204 0.163631
H13   H     H_    0.118371 0.884472 0.366704 0.149287
H14   H     H_    0.030282 0.072872 0.482822 0.140945
H15   H     H_    0.680909 0.118108 0.554900 0.169994
H16   H     H_    0.704177 0.686607 0.632329 0.205821
H17   H     H_    0.795239 0.859231 0.713758 0.147561
H18   H     H_    0.187317 0.669143 0.646002 0.202639
H19   H     H_    0.670446 0.792868 0.881733 0.169037
N1    N     N_R   0.856860 0.501200 0.500990 -0.135211
N2    N     N_R   0.142450 0.501280 0.501020 -0.114922
N3    N     N_1   0.097194 0.265486 0.675546 -0.212440
N4    N     N_1   0.881245 0.254220 0.311878 -0.219083
N5    N     N_1   0.092075 0.950232 0.787685 -0.207519
N6    N     N_3   0.815152 0.788891 0.008494 -0.460729
N7    N     N_3   0.244011 0.417586 0.155293 -0.474788
O1    O     O_R   0.385310 0.683220 0.500000 -0.639164
O2    O     O_R   0.614640 0.683250 0.500010 -0.647050
O3    O     O_R   0.328400 0.499950 0.653610 -0.625664
O4    O     O_R   0.557730 0.499970 0.653620 -0.613987
O5    O     O_R   0.385360 0.316750 0.499990 -0.619744
O6    O     O_R   0.614690 0.316780 0.500000 -0.603652
O7    O     O_R   0.442270 0.500030 0.346380 -0.603135
O8    O     O_R   0.671600 0.500050 0.346390 -0.605988
Zn1   Zn    Zn3+2 0.346880 0.499980 0.499990 0.940617
Zn2   Zn    Zn3+2 0.653120 0.500020 0.500010 0.944822

loop_
_geom_bond_atom_site_label_1
_geom_bond_atom_site_label_2
_ccdc_geom_bond_type
C31   N3    T    
C35   C36   A    
C7    C8    A    
C19   H18   S    
C12   C23   A    
C22   C32   S    
C36   C37   A    
C21   N1    A    
C36   H19   S    
C5    C6    A    
C26   C39   A    
H9    N6    S    
C27   C38   A    
O3    Zn1   S    
O1    Zn1   S    
C34   C35   A    
C26   N6    S    
C19   C20   A    
C27   C39   A    
C8    C9    A    
O5    Zn1   S    
C5    H13   S    
C14   C16   S    
C20   N2    A    
C9    C10   A    
C24   N2    A    
C13   C14   A    
C24   H2    S    
O8    Zn2   S    
C16   O6    A    
C4    O4    A    
C18   C33   S    
C1    O1    A    
C7    C31   S    
C16   O5    A    
O7    Zn1   S    
C22   N1    A    
C4    O3    A    
C3    H12   S    
C18   C19   A    
C23   C37   A    
C15   H16   S    
C2    C4    S    
C29   C30   A    
C3    C9    A    
C33   N5    T    
C17   C18   A    
C25   O7    A    
C17   H17   S    
H10   N7    S    
C29   H5    S    
C22   C24   A    
O2    Zn2   S    
C6    H14   S    
C37   H6    S    
N1    Zn2   S    
H8    N6    S    
C13   H15   S    
C15   C17   A    
C28   C29   A    
C8    C14   A    
C12   C30   A    
C34   C38   A    
C1    C10   S    
C3    C5    A    
C38   H3    S    
C6    C7    A    
C25   C27   S    
C28   H4    S    
C32   N4    T    
O6    Zn2   S    
C11   C13   A    
N2    Zn1   S    
C1    O2    A    
O4    Zn2   S    
C25   O8    A    
H11   N7    S    
C30   N7    S    
C10   C11   A    
C39   H1    S    
C26   C35   A    
C15   C21   A    
C20   C21   A    
C2    C23   A    
C11   H7    S    
C2    C28   A    
C12   C34   A    
