data_str_m3_o8_o10_f0_pcu.sym.44
_audit_creation_date              2012-12-10T21:26:07-0500
_audit_creation_method            fapswitch 2.2
_symmetry_space_group_name_H-M    P1
_symmetry_Int_Tables_number       1
_space_group_crystal_system       triclinic
_cell_length_a                    8.5698
_cell_length_b                    16.164441
_cell_length_c                    16.642692
_cell_angle_alpha                 87.403657
_cell_angle_beta                  91.892045
_cell_angle_gamma                 100.183826
_cell_volume                      2266.0623603

loop_
_atom_site_label
_atom_site_type_symbol
_atom_type_description
_atom_site_fract_x
_atom_site_fract_y
_atom_site_fract_z
_atom_type_partial_charge
C1    C     C_R   0.492555 0.488095 0.653667 0.875697
C2    C     C_R   0.345689 0.146936 0.443451 -0.159918
C3    C     C_R   0.633342 0.764356 0.557034 0.248367
C4    C     C_R   0.358182 0.235645 0.447977 0.253667
C5    C     C_R   0.800440 0.521483 0.501292 0.963065
C6    C     C_R   0.199473 0.478499 0.497934 0.975260
C7    C     C_2   0.965822 0.532895 0.503598 -0.400268
C8    C     C_2   0.033904 0.466915 0.494084 -0.393308
C9    C     C_R   0.473121 0.480236 0.741301 -0.152042
C10   C     C_R   0.557099 0.519363 0.261146 -0.161281
C11   C     C_R   0.465553 0.554033 0.781265 -0.285022
C12   C     C_R   0.512888 0.512030 0.346609 0.874578
C13   C     C_R   0.551545 0.443459 0.222608 -0.284307
C14   C     C_R   0.457507 0.553958 0.864641 -0.008064
C15   C     C_R   0.596706 0.441969 0.143787 -0.000448
C16   C     C_R   0.466650 0.478650 0.909046 0.182609
C17   C     C_R   0.635731 0.518688 0.099522 0.166240
C18   C     C_R   0.450975 0.402303 0.869861 0.153281
C19   C     C_R   0.670262 0.594443 0.139856 0.164087
C20   C     C_R   0.455352 0.402333 0.785694 -0.076231
C21   C     C_R   0.628430 0.595792 0.221214 -0.076868
C22   C     C_R   0.616261 0.360546 0.111041 0.147268
C23   C     C_R   0.408793 0.756372 0.468027 0.316099
C24   C     C_R   0.501694 0.287588 0.123947 -0.177700
C25   C     C_R   0.527306 0.210001 0.098285 -0.146322
C26   C     C_R   0.666970 0.204460 0.059426 -0.111388
C27   C     C_R   0.781319 0.276506 0.046103 -0.163939
C28   C     C_R   0.756475 0.354218 0.071844 -0.162966
C29   C     C_R   0.421785 0.630068 0.902496 0.169463
C30   C     C_R   0.303222 0.622032 0.960399 -0.128304
C31   C     C_R   0.256815 0.693429 0.989789 -0.172878
C32   C     C_R   0.327549 0.773566 0.961631 -0.116022
C33   C     C_R   0.445217 0.782493 0.904194 -0.148482
C34   C     C_R   0.597846 0.243626 0.526147 0.320282
C35   C     C_R   0.492238 0.711309 0.874681 -0.189042
C36   C     C_3   0.268687 0.293181 0.938185 -0.787555
C37   C     C_3   0.683330 0.728427 0.063811 -0.751182
C38   C     C_R   0.436865 0.319929 0.747274 0.183236
C39   C     C_R   0.551298 0.268130 0.761365 -0.146712
C40   C     C_R   0.526880 0.187378 0.731329 -0.137368
C41   C     C_R   0.388803 0.157995 0.686782 -0.126858
C42   C     C_R   0.274939 0.209351 0.671931 -0.173621
C43   C     C_R   0.297883 0.289722 0.702833 -0.091320
C44   C     C_R   0.676316 0.674352 0.265058 0.185471
C45   C     C_R   0.417812 0.844161 0.468254 -0.366678
C46   C     C_R   0.799837 0.680052 0.323024 -0.098112
C47   C     C_R   0.843950 0.753367 0.365590 -0.111282
C48   C     C_R   0.764383 0.820992 0.351333 -0.116497
C49   C     C_R   0.643428 0.816537 0.292589 -0.155320
C50   C     C_R   0.600336 0.743721 0.249012 -0.158326
C51   C     C_3   0.865845 0.260344 0.593298 -0.892060
C52   C     C_3   0.255414 0.708197 0.348720 -0.774955
C53   C     C_R   0.765431 0.903969 0.610222 0.176626
C54   C     C_R   0.738367 0.910828 0.692125 -0.161907
C55   C     C_R   0.851847 0.960448 0.740049 -0.153030
C56   C     C_R   0.590609 0.155868 0.520902 -0.315485
C57   C     C_R   0.992401 0.003184 0.706417 -0.127156
C58   C     C_R   0.019669 0.996308 0.624810 -0.157733
C59   C     C_R   0.906363 0.947044 0.576749 -0.150005
C60   C     C_R   0.212903 0.097812 0.397173 0.179650
C61   C     C_R   0.055357 0.094138 0.419973 -0.179041
C62   C     C_R   0.930009 0.054900 0.371556 -0.166785
C63   C     C_R   0.961186 0.018299 0.300654 -0.120033
C64   C     C_R   0.117635 0.019563 0.278787 -0.154977
C65   C     C_R   0.243291 0.059281 0.326736 -0.144874
C66   C     C_3   0.896219 0.738910 0.605185 -0.752370
C67   C     C_R   0.538278 0.894189 0.512507 0.205926
C68   C     C_3   0.239037 0.279743 0.321126 -0.752961
C69   C     C_R   0.463311 0.106174 0.480494 0.169769
C70   C     C_R   0.645065 0.853279 0.558758 -0.167820
H1    H     H_    0.031259 0.595303 0.514509 0.175135
H2    H     H_    0.889603 0.272095 0.016153 0.133262
H3    H     H_    0.847616 0.409123 0.062337 0.127860
H4    H     H_    0.243029 0.560558 0.981160 0.129213
H5    H     H_    0.165128 0.686579 0.034018 0.129122
H6    H     H_    0.291318 0.828731 0.984392 0.123314
H7    H     H_    0.500195 0.844615 0.882499 0.124950
H8    H     H_    0.583773 0.719797 0.830221 0.118546
H9    H     H_    0.511158 0.322969 0.961227 0.264023
H10   H     H_    0.261509 0.229874 0.968091 0.238653
H11   H     H_    0.187891 0.287583 0.884332 0.242491
H12   H     H_    0.968457 0.404305 0.482982 0.203961
H13   H     H_    0.229807 0.335941 0.980890 0.234909
H14   H     H_    0.854546 0.651597 0.067549 0.217408
H15   H     H_    0.709792 0.735377 0.998820 0.240713
H16   H     H_    0.726044 0.789939 0.091128 0.235639
H17   H     H_    0.553153 0.711432 0.070641 0.255241
H18   H     H_    0.658242 0.290003 0.796371 0.126015
H19   H     H_    0.615014 0.147551 0.742539 0.132164
H20   H     H_    0.370964 0.095594 0.663394 0.137189
H21   H     H_    0.168404 0.186662 0.637068 0.132059
H22   H     H_    0.207541 0.328379 0.692693 0.108843
H23   H     H_    0.518854 0.383881 0.255119 0.186023
H24   H     H_    0.860022 0.627243 0.335803 0.102892
H25   H     H_    0.939205 0.757676 0.409851 0.115430
H26   H     H_    0.795992 0.876568 0.386151 0.133397
H27   H     H_    0.581772 0.869048 0.281539 0.128473
H28   H     H_    0.503839 0.740345 0.205009 0.125148
H29   H     H_    0.688292 0.330668 0.611614 0.267101
H30   H     H_    0.840020 0.210676 0.641713 0.243837
H31   H     H_    0.956703 0.311834 0.616650 0.244493
H32   H     H_    0.915138 0.235228 0.540512 0.241117
H33   H     H_    0.169795 0.719490 0.460934 0.189258
H34   H     H_    0.460858 0.612112 0.746964 0.172212
H35   H     H_    0.139717 0.670774 0.330342 0.222203
H36   H     H_    0.347703 0.678207 0.323618 0.270699
H37   H     H_    0.262651 0.773587 0.323553 0.218634
H38   H     H_    0.629678 0.878057 0.718576 0.115832
H39   H     H_    0.830826 0.965792 0.803217 0.124192
H40   H     H_    0.080137 0.041444 0.743632 0.135524
H41   H     H_    0.128405 0.028948 0.598600 0.135687
H42   H     H_    0.928856 0.941585 0.513793 0.134320
H43   H     H_    0.029707 0.122577 0.474558 0.114519
H44   H     H_    0.808749 0.053030 0.388914 0.151417
H45   H     H_    0.681676 0.125763 0.549871 0.190346
H46   H     H_    0.864087 0.988565 0.262839 0.129172
H47   H     H_    0.141514 0.990765 0.224097 0.125421
H48   H     H_    0.363977 0.061908 0.307978 0.124963
H49   H     H_    0.686949 0.715981 0.669694 0.203907
H50   H     H_    0.949150 0.782368 0.652500 0.234576
H51   H     H_    0.932559 0.767323 0.545375 0.219911
H52   H     H_    0.943754 0.679687 0.614929 0.234476
H53   H     H_    0.134059 0.267377 0.433961 0.210334
H54   H     H_    0.234172 0.344657 0.297840 0.240193
H55   H     H_    0.131135 0.237521 0.298980 0.234615
H56   H     H_    0.327425 0.872234 0.435751 0.178793
H57   H     H_    0.345025 0.259387 0.297075 0.221531
H58   H     H_    0.392014 0.290863 0.153048 0.129950
H59   H     H_    0.438537 0.154225 0.108287 0.125461
H60   H     H_    0.686462 0.144376 0.039511 0.120809
N1    N     N_2   0.489278 0.477919 0.993129 -0.188529
N2    N     N_2   0.270285 0.706693 0.435403 -0.257255
N3    N     N_2   0.725304 0.720711 0.611325 -0.249467
N4    N     N_2   0.243922 0.278102 0.408249 -0.246112
N5    N     N_2   0.617666 0.521520 0.014759 -0.176263
N6    N     N_R   0.519180 0.718290 0.509780 -0.118848
N7    N     N_R   0.480820 0.281710 0.490220 -0.138621
N8    N     N_2   0.552068 0.984147 0.515557 -0.170261
N9    N     N_2   0.448497 0.016143 0.476558 -0.171005
N10   N     N_2   0.430079 0.324473 0.914840 -0.297815
N11   N     N_2   0.765582 0.665831 0.101970 -0.309562
N12   N     N_2   0.723911 0.293405 0.569886 -0.263232
O1    O     O_R   0.493140 0.422050 0.612640 -0.638631
O2    O     O_R   0.506860 0.577950 0.387360 -0.603649
O3    O     O_R   0.505450 0.562230 0.618920 -0.612967
O4    O     O_R   0.494550 0.437770 0.381080 -0.597119
O5    O     O_R   0.723530 0.446300 0.497600 -0.608281
O6    O     O_R   0.276470 0.553700 0.502400 -0.590735
O7    O     O_R   0.735850 0.586490 0.503880 -0.599733
O8    O     O_R   0.264150 0.413510 0.496120 -0.618242
Zn1   Zn    Zn3+2 0.491780 0.406400 0.495810 0.953273
Zn2   Zn    Zn3+2 0.508220 0.593600 0.504190 0.971657

loop_
_geom_bond_atom_site_label_1
_geom_bond_atom_site_label_2
_ccdc_geom_bond_type
C20   C38   S    
C69   N9    S    
C34   C56   A    
C23   C45   A    
C41   C42   A    
H29   N12   S    
C1    O3    A    
C25   H59   S    
C68   H54   S    
C53   C59   A    
C7    C8    D    
C53   C54   A    
C51   H32   S    
C26   C27   A    
H49   N3    S    
C37   N11   S    
C23   N6    A    
C5    O5    A    
C37   H15   S    
C19   C21   A    
C62   H44   S    
N1    N5    D    
C7    H1    S    
C30   C31   A    
C30   H4    S    
C11   C14   A    
C2    C60   S    
C28   H3    S    
C36   H13   S    
C21   C44   S    
C5    O7    A    
C3    N6    A    
C12   O4    A    
C16   N1    S    
C67   N8    S    
C17   C19   A    
C4    N7    A    
C46   C47   A    
C15   C22   S    
C57   H40   S    
C52   H37   S    
C32   H6    S    
C45   C67   A    
C65   H48   S    
C66   H52   S    
C34   N7    A    
C11   H34   S    
C14   C16   A    
C40   H19   S    
C2    C69   A    
H33   N2    S    
C45   H56   S    
C18   C20   A    
C26   H60   S    
O1    Zn1   S    
C41   H20   S    
C52   H36   S    
C19   N11   S    
C66   H50   S    
C55   H39   S    
C39   H18   S    
C53   C70   S    
C22   C28   A    
N6    Zn2   S    
C44   C46   A    
C10   C21   A    
C50   H28   S    
H53   N4    S    
C58   H41   S    
C52   N2    S    
C37   H16   S    
C3    C70   A    
C1    C9    S    
C24   C25   A    
C36   H10   S    
O7    Zn2   S    
C39   C40   A    
C5    C7    S    
C6    C8    S    
C25   C26   A    
C64   H47   S    
C12   O2    A    
C13   H23   S    
C60   C61   A    
C3    N3    S    
C2    C4    A    
C17   N5    S    
C29   C30   A    
C1    O1    A    
C66   N3    S    
C6    O6    A    
C9    C20   A    
C31   H5    S    
C47   C48   A    
C46   H24   S    
C36   H11   S    
C62   C63   A    
C59   H42   S    
C66   H51   S    
C18   N10   S    
C9    C11   A    
C68   H57   S    
C10   C12   S    
C63   H46   S    
C48   C49   A    
C60   C65   A    
C49   C50   A    
C55   C57   A    
C61   H43   S    
C8    H12   S    
C42   C43   A    
C14   C29   S    
C4    N4    S    
C51   N12   S    
C44   C50   A    
C51   H30   S    
C15   C17   A    
C54   C55   A    
C34   N12   S    
C48   H26   S    
C37   H17   S    
C31   C32   A    
O6    Zn2   S    
C63   C64   A    
C10   C13   A    
C52   H35   S    
C51   H31   S    
C29   C35   A    
C35   H8    S    
C43   H22   S    
C54   H38   S    
C67   C70   A    
C64   C65   A    
C13   C15   A    
C58   C59   A    
C38   C43   A    
O2    Zn2   S    
C32   C33   A    
C33   H7    S    
C57   C58   A    
C38   C39   A    
H14   N11   S    
O5    Zn1   S    
C68   N4    S    
C33   C35   A    
C56   H45   S    
C23   N2    S    
H9    N10   S    
C22   C24   A    
C36   N10   S    
C61   C62   A    
O3    Zn2   S    
N8    N9    D    
C49   H27   S    
O4    Zn1   S    
C6    O8    A    
C16   C18   A    
C56   C69   A    
C27   C28   A    
C24   H58   S    
C47   H25   S    
O8    Zn1   S    
N7    Zn1   S    
C40   C41   A    
C68   H55   S    
C27   H2    S    
C42   H21   S    
