data_str_m3_o14_o17_f0_pcu.sym.193
_audit_creation_date              2012-12-10T17:43:35-0500
_audit_creation_method            fapswitch 2.2
_symmetry_space_group_name_H-M    P1
_symmetry_Int_Tables_number       1
_space_group_crystal_system       triclinic
_cell_length_a                    14.90779
_cell_length_b                    10.662164
_cell_length_c                    9.921152
_cell_angle_alpha                 90.932823
_cell_angle_beta                  89.780086
_cell_angle_gamma                 91.907177
_cell_volume                      1575.86918257

loop_
_atom_site_label
_atom_site_type_symbol
_atom_type_description
_atom_site_fract_x
_atom_site_fract_y
_atom_site_fract_z
_atom_type_partial_charge
C1    C     C_R   0.510287 0.261670 0.499169 0.858948
C2    C     C_R   0.908333 0.588996 0.419970 0.132442
C3    C     C_R   0.949346 0.322701 0.649577 -0.219738
C4    C     C_R   0.042572 0.323940 0.650079 -0.194806
C5    C     C_R   0.091192 0.414198 0.576304 0.132178
C6    C     C_R   0.046654 0.502792 0.498962 -0.028454
C7    C     C_R   0.095411 0.597484 0.428997 0.000799
C8    C     C_R   0.049954 0.685626 0.353668 -0.187736
C9    C     C_R   0.956820 0.680383 0.347917 -0.238571
C10   C     C_R   0.183850 0.417222 0.578131 -0.347800
C11   C     C_R   0.231668 0.507501 0.504864 -0.190033
C12   C     C_R   0.327137 0.501731 0.500855 0.901714
C13   C     C_R   0.188580 0.605289 0.441298 0.447930
C14   C     C_R   0.626492 0.138384 0.698011 -0.263506
C15   C     C_R   0.675642 0.075870 0.793714 -0.257525
C16   C     C_R   0.678389 0.945004 0.789839 0.558630
C17   C     C_R   0.627552 0.877090 0.694072 -0.278345
C18   C     C_R   0.574545 0.938657 0.599174 0.038877
C19   C     C_R   0.575380 0.070850 0.599386 0.109969
C20   C     C_R   0.528305 0.130403 0.495793 -0.086444
C21   C     C_R   0.496586 0.062563 0.383977 -0.216435
C22   C     C_R   0.490666 0.935070 0.387817 -0.229351
C23   C     C_R   0.507224 0.739877 0.500615 0.857539
C24   C     C_R   0.523443 0.873011 0.499057 -0.103130
C25   C     C_R   0.372132 0.347124 0.136052 -0.319390
C26   C     C_R   0.302076 0.283425 0.062591 0.525465
C27   C     C_R   0.307417 0.281987 0.923157 -0.244400
C28   C     C_R   0.375592 0.347098 0.856701 -0.242875
C29   C     C_R   0.438126 0.424789 0.926386 0.179746
C30   C     C_R   0.437467 0.424689 0.070731 0.129138
C31   C     C_R   0.559604 0.571583 0.072466 -0.088439
C32   C     C_R   0.559570 0.571530 0.929458 -0.106696
C33   C     C_R   0.672912 0.500136 0.499695 0.862274
C34   C     C_R   0.815452 0.586621 0.419627 -0.271226
C35   C     C_R   0.768320 0.499808 0.498559 -0.053116
C36   C     C_R   0.811778 0.412596 0.575853 -0.266503
C37   C     C_R   0.904566 0.410815 0.574048 0.128326
C38   C     C_R   0.953227 0.500091 0.496594 0.077079
H1    H     H_    0.779649 0.654177 0.361451 0.145847
H2    H     H_    0.632418 0.239466 0.699887 0.187495
H3    H     H_    0.713729 0.129449 0.868892 0.150616
H4    H     H_    0.634417 0.776691 0.691470 0.167196
H5    H     H_    0.457125 0.885416 0.305064 0.186383
H6    H     H_    0.608289 0.630207 0.126854 0.153601
H7    H     H_    0.376553 0.333279 0.241622 0.209703
H8    H     H_    0.257937 0.228077 0.864679 0.166343
H9    H     H_    0.376665 0.334225 0.750329 0.227094
H10   H     H_    0.773277 0.345662 0.635707 0.139008
H11   H     H_    0.608421 0.629855 0.876734 0.162138
H12   H     H_    0.912322 0.253475 0.708463 0.141198
H13   H     H_    0.076648 0.255362 0.709003 0.144915
H14   H     H_    0.219065 0.349580 0.636577 0.166246
H15   H     H_    0.086194 0.758742 0.299347 0.190206
H16   H     H_    0.922679 0.749216 0.289483 0.150920
H17   H     H_    0.470664 0.108194 0.296534 0.171840
N1    N     N_R   0.499150 0.498800 0.142780 -0.110428
N2    N     N_R   0.499120 0.498720 0.857170 -0.120066
O1    O     O_R   0.500000 0.316780 0.614690 -0.647288
O2    O     O_R   0.499990 0.316750 0.385360 -0.635818
O3    O     O_R   0.367850 0.499980 0.614680 -0.637512
O4    O     O_R   0.367840 0.499960 0.385350 -0.609333
O5    O     O_R   0.500010 0.683250 0.614640 -0.622838
O6    O     O_R   0.500000 0.683220 0.385310 -0.606480
O7    O     O_R   0.632160 0.500040 0.614650 -0.640301
O8    O     O_R   0.632150 0.500020 0.385320 -0.616156
Zn1   Zn    Zn3+2 0.500010 0.500020 0.653130 0.924403
Zn2   Zn    Zn3+2 0.499990 0.499980 0.346870 0.952502
O9    O     O_3   0.726455 0.881401 0.884488 -0.661452
C39   C     C_3   0.819529 0.893791 0.856683 0.055586
H18   H     H_    0.855546 0.884663 0.953696 0.173119
H19   H     H_    0.840522 0.987464 0.816442 0.121616
C40   C     C_3   0.848845 0.788902 0.760227 -0.350833
H20   H     H_    0.828224 0.696199 0.802085 0.236680
H21   H     H_    0.815693 0.798405 0.660960 0.213568
C41   C     C_3   0.950365 0.794117 0.739526 -0.938121
H22   H     H_    0.972028 0.884250 0.692935 0.261263
H23   H     H_    0.969880 0.715937 0.671772 0.272082
H24   H     H_    0.985385 0.784585 0.837244 0.267051
O10   O     O_3   0.227843 0.217318 0.115987 -0.652033
C42   C     C_3   0.216308 0.228042 0.256778 0.092726
H25   H     H_    0.143290 0.218411 0.278669 0.163591
H26   H     H_    0.236159 0.322254 0.297864 0.143314
C43   C     C_3   0.262154 0.119702 0.324749 -0.347471
H27   H     H_    0.218960 0.033020 0.315804 0.223157
H28   H     H_    0.325469 0.100637 0.271348 0.225496
C44   C     C_3   0.281799 0.148432 0.472505 -0.988447
H29   H     H_    0.319445 0.239230 0.483778 0.259359
H30   H     H_    0.324321 0.075132 0.513373 0.271118
H31   H     H_    0.218154 0.150544 0.530703 0.269900
O11   O     O_3   0.235832 0.712153 0.399203 -0.653231
C45   C     C_3   0.263972 0.785549 0.513425 0.083741
H32   H     H_    0.312847 0.858173 0.477632 0.166086
H33   H     H_    0.300851 0.730183 0.587804 0.153545
C46   C     C_3   0.185845 0.851918 0.583703 -0.400544
H34   H     H_    0.159218 0.923708 0.516168 0.227984
H35   H     H_    0.130410 0.783828 0.606788 0.233246
C47   C     C_3   0.215163 0.913155 0.717427 -0.923661
H36   H     H_    0.231822 0.839806 0.790661 0.275588
H37   H     H_    0.159555 0.968508 0.759705 0.263172
H38   H     H_    0.274876 0.976477 0.704143 0.264833

loop_
_geom_bond_atom_site_label_1
_geom_bond_atom_site_label_2
_ccdc_geom_bond_type
C8    C9    A    
C28   H9    S    
C13   O11   S    
C19   C20   A    
N2    Zn1   S    
C10   H14   S    
C47   H36   S    
C33   O8    A    
C7    C8    A    
C26   C27   A    
C29   C30   A    
C18   C24   A    
C36   C37   A    
C18   C19   A    
C1    O2    A    
C5    C6    A    
C44   H30   S    
C15   C16   A    
C34   C35   A    
C39   H19   S    
C2    C38   A    
C17   H4    S    
O2    Zn2   S    
O9    C39   S    
O1    Zn1   S    
C23   O5    A    
C43   H27   S    
C16   C17   A    
O8    Zn2   S    
C23   C24   S    
C6    C38   A    
C16   O9    S    
C31   N1    A    
C2    C34   A    
C23   O6    A    
O3    Zn1   S    
C21   C22   A    
C46   H34   S    
C32   N2    A    
C42   C43   S    
C47   H37   S    
C3    H12   S    
O6    Zn2   S    
C31   H6    S    
O5    Zn1   S    
C4    H13   S    
C34   H1    S    
C15   H3    S    
C42   H26   S    
C45   H32   S    
C21   H17   S    
C44   H29   S    
C40   H20   S    
C46   C47   S    
C25   C26   A    
C30   N1    A    
C35   C36   A    
O7    Zn1   S    
C39   C40   S    
C41   H22   S    
C37   C38   A    
C45   H33   S    
O4    Zn2   S    
C31   C32   A    
C7    C13   A    
C17   C18   A    
C46   H35   S    
C41   H23   S    
C27   H8    S    
C40   H21   S    
C43   H28   S    
C29   N2    A    
C22   C24   A    
C3    C4    A    
C25   H7    S    
C47   H38   S    
C25   C30   A    
C28   C29   A    
C1    C20   S    
C14   C19   A    
C42   H25   S    
C44   H31   S    
C8    H15   S    
C11   C12   S    
C6    C7    A    
N1    Zn2   S    
C26   O10   S    
C5    C10   A    
C1    O1    A    
C45   C46   S    
C12   O4    A    
C11   C13   A    
C40   C41   S    
O11   C45   S    
C33   O7    A    
C33   C35   S    
C36   H10   S    
C39   H18   S    
C41   H24   S    
C32   H11   S    
C10   C11   A    
C14   H2    S    
O10   C42   S    
C12   O3    A    
C4    C5    A    
C43   C44   S    
C20   C21   A    
C3    C37   A    
C27   C28   A    
C14   C15   A    
C9    H16   S    
C2    C9    A    
C22   H5    S    
