data_str_m4_o4_o24_f0_acs.sym.59
_audit_creation_date              2012-12-11T15:50:40-0500
_audit_creation_method            fapswitch 2.2
_symmetry_space_group_name_H-M    P1
_symmetry_Int_Tables_number       1
_space_group_crystal_system       triclinic
_cell_length_a                    18.899758
_cell_length_b                    11.061106
_cell_length_c                    18.775631
_cell_angle_alpha                 90.137649
_cell_angle_beta                  90.609189
_cell_angle_gamma                 90.252083
_cell_volume                      3924.81584872

loop_
_atom_site_label
_atom_site_type_symbol
_atom_type_description
_atom_site_fract_x
_atom_site_fract_y
_atom_site_fract_z
_atom_type_partial_charge
C1    C     C_R   0.273890 0.038035 0.855697 0.542039
C2    C     C_R   0.762622 0.560273 0.931561 0.015183
C3    C     C_R   0.228184 0.545191 0.354302 0.540677
C4    C     C_R   0.464483 0.822931 0.644024 0.551696
C5    C     C_R   0.528320 0.822828 0.351871 0.545180
C6    C     C_R   0.964303 0.322894 0.643940 0.551309
C7    C     C_R   0.028266 0.322786 0.351834 0.546831
C8    C     C_R   0.259659 0.635872 0.644296 0.558192
C9    C     C_R   0.741057 0.635344 0.355305 0.549438
C10   C     C_R   0.759678 0.135926 0.644270 0.559373
C11   C     C_R   0.241047 0.135347 0.355297 0.548992
C12   C     C_3   0.490573 0.942944 0.025321 0.270366
C13   C     C_R   0.748113 0.076186 0.075213 0.003052
C14   C     C_3   0.542771 0.900642 0.969458 0.237502
C15   C     C_3   0.990567 0.442944 0.025323 0.270578
C16   C     C_3   0.042766 0.400651 0.969460 0.237664
C17   C     C_3   0.430338 0.872005 0.988050 -0.140821
C18   C     C_3   0.561854 0.789966 0.014481 -0.154793
C19   C     C_3   0.930335 0.371997 0.988051 -0.140803
C20   C     C_3   0.061854 0.289975 0.014481 -0.154674
C21   C     C_3   0.484657 0.828643 0.932470 0.056976
C22   C     C_3   0.507748 0.832067 0.070604 0.062546
C23   C     C_3   0.984656 0.328644 0.932471 0.056912
C24   C     C_R   0.262621 0.060274 0.931561 0.015164
C25   C     C_3   0.007746 0.332068 0.070605 0.062642
C26   C     C_R   0.282284 0.491648 0.031614 0.021084
C27   C     C_R   0.710746 0.496962 0.968914 0.009477
C28   C     C_R   0.782284 0.991646 0.031613 0.021278
C29   C     C_R   0.210746 0.996963 0.968914 0.009609
C30   C     C_R   0.284952 0.507352 0.958434 0.004065
C31   C     C_R   0.706684 0.504041 0.042624 0.000322
C32   C     C_R   0.784953 0.007351 0.958434 0.004108
C33   C     C_R   0.728356 0.041696 0.146713 0.539143
C34   C     C_R   0.206683 0.004043 0.042624 0.000147
C35   C     C_R   0.212035 0.684000 0.969633 -0.141678
C36   C     C_R   0.816355 0.613693 0.045663 -0.145821
C37   C     C_R   0.712033 0.183995 0.969632 -0.141834
C38   C     C_R   0.316354 0.113698 0.045662 -0.145715
C39   C     C_R   0.211266 0.670919 0.042904 -0.158033
C40   C     C_R   0.818041 0.613272 0.971715 -0.167007
C41   C     C_R   0.711263 0.170915 0.042903 -0.158084
C42   C     C_R   0.318040 0.113277 0.971714 -0.167068
C43   C     C_3   0.357186 0.448546 0.033960 -0.264323
C44   C     C_R   0.773891 0.538034 0.855697 0.542043
C45   C     C_3   0.632488 0.498460 0.959943 -0.285020
C46   C     C_3   0.857185 0.948541 0.033960 -0.264468
C47   C     C_3   0.132488 0.998463 0.959942 -0.284761
C48   C     C_3   0.359304 0.465129 0.953764 -0.273799
C49   C     C_3   0.627795 0.498405 0.040913 -0.275263
C50   C     C_3   0.859305 0.965129 0.953765 -0.273759
C51   C     C_3   0.127794 0.998410 0.040912 -0.275691
C52   C     C_R   0.251438 0.605496 0.926467 0.031037
C53   C     C_R   0.755586 0.574662 0.081416 0.015848
C54   C     C_R   0.751437 0.105494 0.926467 0.031076
C55   C     C_R   0.228356 0.541696 0.146713 0.541227
C56   C     C_R   0.255585 0.074665 0.081415 0.015703
C57   C     C_R   0.490588 0.827060 0.419234 0.006265
C58   C     C_R   0.476576 0.828900 0.567801 0.005290
C59   C     C_R   0.990418 0.326726 0.419143 0.004862
C60   C     C_R   0.976255 0.328763 0.567683 0.003253
C61   C     C_R   0.467120 0.821354 0.856846 0.582969
C62   C     C_R   0.529658 0.822017 0.144976 0.553701
C63   C     C_R   0.967120 0.321354 0.856846 0.583021
C64   C     C_R   0.029657 0.322017 0.144977 0.555541
C65   C     C_R   0.480368 0.719367 0.457118 0.018392
C66   C     C_3   0.501729 0.716563 0.977668 -0.173379
C67   C     C_R   0.473621 0.720966 0.529704 0.030475
C68   C     C_R   0.980684 0.219008 0.457140 0.016206
C69   C     C_R   0.973804 0.220694 0.529704 0.028513
C70   C     C_R   0.471900 0.937688 0.529187 -0.142629
C71   C     C_R   0.477423 0.936363 0.454566 -0.124647
C72   C     C_R   0.970972 0.437326 0.528922 -0.137526
C73   C     C_R   0.976464 0.435849 0.454285 -0.122027
C74   C     C_3   0.523729 0.606415 0.460572 -0.265609
C75   C     C_3   0.515561 0.608736 0.540418 -0.274092
C76   C     C_3   0.024535 0.106641 0.460755 -0.261986
C77   C     C_3   0.448242 0.759732 0.034095 -0.180097
C78   C     C_3   0.016138 0.108947 0.540583 -0.270527
C79   C     C_R   0.240579 0.574629 0.427690 -0.007289
C80   C     C_R   0.759972 0.570049 0.571151 -0.007032
C81   C     C_R   0.740851 0.074630 0.427626 -0.008278
C82   C     C_R   0.260066 0.069613 0.571086 -0.008159
C83   C     C_R   0.180109 0.592499 0.468238 0.102019
C84   C     C_R   0.817537 0.615621 0.534095 0.082321
C85   C     C_R   0.680478 0.093222 0.468074 0.121520
C86   C     C_R   0.317538 0.115631 0.534088 0.084627
C87   C     C_R   0.182840 0.593202 0.541117 -0.029798
C88   C     C_3   0.001732 0.216565 0.977667 -0.173518
C89   C     C_R   0.816612 0.620408 0.461376 -0.016520
C90   C     C_R   0.682978 0.093835 0.540945 -0.024394
C91   C     C_R   0.316437 0.120913 0.461392 -0.012339
C92   C     C_R   0.308037 0.548070 0.535811 -0.168184
C93   C     C_R   0.703779 0.516953 0.458879 -0.178579
C94   C     C_R   0.808108 0.047834 0.535849 -0.169736
C95   C     C_R   0.203925 0.016508 0.458782 -0.178596
C96   C     C_R   0.304404 0.546559 0.461809 -0.182621
C97   C     C_R   0.704375 0.514557 0.533076 -0.175819
C98   C     C_R   0.804559 0.046093 0.461831 -0.185414
C99   C     C_3   0.948245 0.259725 0.034095 -0.180345
C100  C     C_R   0.204574 0.013834 0.532975 -0.174839
C101  C     C_3   0.129871 0.695932 0.464718 0.111634
C102  C     C_3   0.852165 0.736406 0.542569 0.089906
C103  C     C_3   0.630862 0.197203 0.464186 0.102573
C104  C     C_3   0.351821 0.236667 0.542754 0.086844
C105  C     C_3   0.128165 0.691451 0.544781 -0.179286
C106  C     C_3   0.853184 0.741580 0.462470 -0.188091
C107  C     C_3   0.628632 0.192737 0.544311 -0.220522
C108  C     C_3   0.352246 0.242680 0.462684 -0.188805
C109  C     C_R   0.261251 0.640265 0.852791 0.563356
C110  C     C_R   0.248114 0.576188 0.075214 0.003019
C111  C     C_R   0.740161 0.633750 0.149314 0.544466
C112  C     C_R   0.761251 0.140264 0.852791 0.563371
C113  C     C_R   0.240161 0.133750 0.149314 0.544378
C114  C     C_R   0.248321 0.581205 0.575678 -0.001843
C115  C     C_R   0.756618 0.580753 0.423134 0.007802
C116  C     C_R   0.748376 0.081365 0.575621 -0.001320
C117  C     C_R   0.256601 0.080793 0.423119 0.006252
C118  C     C_R   0.272234 0.043459 0.644966 0.544708
C119  C     C_R   0.728260 0.045231 0.354263 0.538673
C120  C     C_R   0.772200 0.543582 0.645002 0.544638
Cr1   Cr    Cr6+3 0.229640 0.835880 0.747370 1.018800
Cr2   Cr    Cr6+3 0.614230 0.677220 0.250660 1.006104
Cr3   Cr    Cr6+3 0.885770 0.177220 0.749340 1.008580
Cr4   Cr    Cr6+3 0.114230 0.177220 0.250660 1.002873
Cr5   Cr    Cr6+3 0.770360 0.835880 0.252630 1.011124
Cr6   Cr    Cr6+3 0.729640 0.335880 0.747370 1.018961
Cr7   Cr    Cr6+3 0.270360 0.335880 0.252630 1.014800
Cr8   Cr    Cr6+3 0.387390 0.989720 0.750850 1.034730
Cr9   Cr    Cr6+3 0.612610 0.989720 0.249150 1.079365
Cr10  Cr    Cr6+3 0.887390 0.489720 0.750850 1.034647
Cr11  Cr    Cr6+3 0.112610 0.489720 0.249150 1.051731
Cr12  Cr    Cr6+3 0.385770 0.677220 0.749340 1.008594
H1    H     H_    0.375680 0.899955 0.975109 0.126749
H2    H     H_    0.984149 0.032230 0.560902 0.154005
H3    H     H_    0.578824 0.623943 0.444342 0.172411
H4    H     H_    0.483404 0.532294 0.560804 0.150953
H5    H     H_    0.496993 0.528011 0.434480 0.131274
H6    H     H_    0.565952 0.625923 0.569869 0.140138
H7    H     H_    0.998209 0.027879 0.434622 0.139263
H8    H     H_    0.066398 0.126654 0.570164 0.139777
H9    H     H_    0.358947 0.534155 0.561163 0.149426
H10   H     H_    0.658670 0.480741 0.430054 0.117333
H11   H     H_    0.858977 0.033721 0.561272 0.150121
H12   H     H_    0.617730 0.764397 0.024831 0.111420
H13   H     H_    0.158853 0.980249 0.429916 0.118961
H14   H     H_    0.351106 0.524630 0.431492 0.129716
H15   H     H_    0.660617 0.473664 0.560635 0.124266
H16   H     H_    0.851250 0.023862 0.431577 0.131307
H17   H     H_    0.160908 0.972580 0.560499 0.127086
H18   H     H_    0.154342 0.779018 0.442672 0.095656
H19   H     H_    0.817734 0.805182 0.568100 0.108428
H20   H     H_    0.656016 0.278799 0.441229 0.110487
H21   H     H_    0.317406 0.304930 0.568788 0.110202
H22   H     H_    0.146774 0.777239 0.568416 0.130623
H23   H     H_    0.875675 0.399937 0.975111 0.126769
H24   H     H_    0.819333 0.814957 0.441741 0.139277
H25   H     H_    0.647483 0.278272 0.568040 0.134987
H26   H     H_    0.317696 0.315478 0.442406 0.140791
H27   H     H_    0.077318 0.657710 0.566628 0.186995
H28   H     H_    0.907050 0.737568 0.439282 0.180868
H29   H     H_    0.577490 0.159595 0.565765 0.179599
H30   H     H_    0.405875 0.239897 0.439021 0.160107
H31   H     H_    0.503992 0.622573 0.957742 0.128675
H32   H     H_    0.407909 0.707112 0.063081 0.124318
H33   H     H_    0.003998 0.122576 0.957741 0.128674
H34   H     H_    0.117731 0.264411 0.024831 0.111628
H35   H     H_    0.907914 0.207100 0.063082 0.124304
H36   H     H_    0.183396 0.758525 0.946954 0.157045
H37   H     H_    0.859752 0.656230 0.074216 0.173602
H38   H     H_    0.683390 0.258515 0.946953 0.157058
H39   H     H_    0.359750 0.156238 0.074214 0.173980
H40   H     H_    0.180149 0.733018 0.074177 0.146917
H41   H     H_    0.863998 0.652273 0.946456 0.139593
H42   H     H_    0.680145 0.233011 0.074175 0.147472
H43   H     H_    0.363997 0.152279 0.946455 0.139603
H44   H     H_    0.860827 0.853009 0.050235 0.148783
H45   H     H_    0.466277 0.022761 0.556555 0.203644
H46   H     H_    0.110442 0.915536 0.934704 0.140751
H47   H     H_    0.360831 0.353015 0.050237 0.148992
H48   H     H_    0.610443 0.415534 0.934704 0.140766
H49   H     H_    0.393479 0.509071 0.064130 0.132224
H50   H     H_    0.615935 0.583716 0.933927 0.145013
H51   H     H_    0.893479 0.009062 0.064133 0.131935
H52   H     H_    0.115936 0.083718 0.933926 0.144982
H53   H     H_    0.395775 0.537642 0.936381 0.160258
H54   H     H_    0.601989 0.578047 0.064288 0.177265
H55   H     H_    0.895776 0.037643 0.936384 0.160263
H56   H     H_    0.475727 0.019848 0.425223 0.195475
H57   H     H_    0.101990 0.078054 0.064286 0.177250
H58   H     H_    0.363461 0.378640 0.923933 0.138482
H59   H     H_    0.607627 0.411351 0.062176 0.137078
H60   H     H_    0.863463 0.878642 0.923933 0.138469
H61   H     H_    0.107625 0.911357 0.062176 0.136180
H62   H     H_    0.062568 0.704908 0.386907 0.327952
H63   H     H_    0.916702 0.751841 0.622499 0.333691
H64   H     H_    0.537715 0.241219 0.432749 0.315964
H65   H     H_    0.416894 0.251438 0.622284 0.335624
H66   H     H_    0.482724 0.113482 0.009638 0.323409
H67   H     H_    0.964860 0.522342 0.556193 0.207432
H68   H     H_    0.630953 0.983145 0.967744 0.333152
H69   H     H_    0.982702 0.613480 0.009641 0.323405
H70   H     H_    0.130969 0.483094 0.967725 0.333228
H71   H     H_    0.974038 0.519092 0.424753 0.193862
H72   H     H_    0.079594 0.124923 0.444646 0.171739
O1    O     O_R   0.214300 0.709080 0.827500 -0.513297
O2    O     O_R   0.543340 0.717710 0.330180 -0.529298
O3    O     O_R   0.956660 0.217710 0.669820 -0.517860
O4    O     O_R   0.043340 0.217710 0.330180 -0.528124
O5    O     O_R   0.320590 0.625770 0.672930 -0.510329
O6    O     O_R   0.679410 0.625770 0.327070 -0.509581
O7    O     O_R   0.820590 0.125770 0.672930 -0.510907
O8    O     O_R   0.179410 0.125770 0.327070 -0.511178
O9    O     O_3   0.334270 0.834280 0.749190 -0.265528
O10   O     O_3   0.665730 0.834280 0.250810 -0.261783
O11   O     O_3   0.834270 0.334280 0.749190 -0.265695
O12   O     O_R   0.785700 0.709080 0.172500 -0.522643
O13   O     O_3   0.165730 0.334280 0.250810 -0.257393
O14   O     O_R   0.236190 0.958390 0.823150 -0.502985
O15   O     O_R   0.763810 0.958390 0.176850 -0.503765
O16   O     O_R   0.736190 0.458390 0.823150 -0.503025
O17   O     O_R   0.263810 0.458390 0.176850 -0.502426
O18   O     O_R   0.332090 0.075280 0.831290 -0.530061
O19   O     O_R   0.667910 0.075280 0.168710 -0.507813
O20   O     O_R   0.832090 0.575280 0.831290 -0.530047
O21   O     O_R   0.167910 0.575280 0.168710 -0.508966
O22   O     O_R   0.446280 0.918040 0.826620 -0.485270
O23   O     O_R   0.714300 0.209080 0.827500 -0.513296
O24   O     O_R   0.553720 0.918040 0.173380 -0.463752
O25   O     O_R   0.946280 0.418040 0.826620 -0.485200
O26   O     O_R   0.053720 0.418040 0.173380 -0.463499
O27   O     O_R   0.457080 0.716270 0.831760 -0.536122
O28   O     O_R   0.542920 0.716270 0.168240 -0.540039
O29   O     O_R   0.957080 0.216270 0.831760 -0.536042
O30   O     O_R   0.042920 0.216270 0.168240 -0.539896
O31   O     O_R   0.320980 0.624440 0.823040 -0.510774
O32   O     O_R   0.679020 0.624440 0.176960 -0.506310
O33   O     O_R   0.820980 0.124440 0.823040 -0.510800
O34   O     O_R   0.285700 0.209080 0.172500 -0.521724
O35   O     O_R   0.179020 0.124440 0.176960 -0.507114
O36   O     O_R   0.213880 0.710510 0.665560 -0.525723
O37   O     O_R   0.786120 0.710510 0.334440 -0.530263
O38   O     O_R   0.713880 0.210510 0.665560 -0.523603
O39   O     O_R   0.286120 0.210510 0.334440 -0.528399
O40   O     O_R   0.235800 0.959720 0.673040 -0.508932
O41   O     O_R   0.764200 0.959720 0.326960 -0.518968
O42   O     O_R   0.735800 0.459720 0.673040 -0.508800
O43   O     O_R   0.264200 0.459720 0.326960 -0.514151
O44   O     O_R   0.331670 0.076720 0.669350 -0.513864
O45   O     O_R   0.445900 0.919370 0.676500 -0.499203
O46   O     O_R   0.668330 0.076720 0.330650 -0.473252
O47   O     O_R   0.831670 0.576720 0.669350 -0.514282
O48   O     O_R   0.168330 0.576720 0.330650 -0.509792
O49   O     O_3   0.064786 0.664470 0.433970 -0.705786
O50   O     O_3   0.920597 0.729051 0.571581 -0.715262
O51   O     O_3   0.566461 0.166414 0.432034 -0.693931
O52   O     O_3   0.420491 0.229541 0.571207 -0.730248
O53   O     O_3   0.486237 0.060631 0.052064 -0.697475
O54   O     O_3   0.590875 0.974157 0.933910 -0.694065
O55   O     O_3   0.986225 0.560630 0.052066 -0.698206
O56   O     O_R   0.554100 0.919370 0.323500 -0.475932
O57   O     O_3   0.090867 0.474175 0.933914 -0.694083
O58   O     O_R   0.945900 0.419370 0.676500 -0.499562
O59   O     O_R   0.054100 0.419370 0.323500 -0.486944
O60   O     O_R   0.456660 0.717710 0.669820 -0.517983

loop_
_geom_bond_atom_site_label_1
_geom_bond_atom_site_label_2
_ccdc_geom_bond_type
C38   C56   A    
Cr1   O40   S    
Cr2   O32   S    
C41   H42   S    
C80   C120  S    
C34   C56   A    
Cr11  O48   S    
Cr10  O20   S    
Cr3   O11   S    
C21   C66   S    
Cr6   O42   S    
C103  O51   S    
Cr1   O14   S    
C14   C18   S    
Cr5   O41   S    
Cr6   O23   S    
C95   H13   S    
C120  O47   A    
Cr1   O1    S    
C71   H56   S    
Cr9   O19   S    
Cr9   O56   S    
C86   C104  S    
C89   C115  A    
C84   C89   A    
C17   H1    S    
C10   C116  S    
C38   H39   S    
C99   H35   S    
C24   C42   A    
C95   C117  A    
C15   C19   S    
C73   H71   S    
H64   O51   S    
C28   C46   S    
C34   C51   S    
C3    O43   A    
C29   C47   S    
C94   H11   S    
C60   C69   A    
C14   C21   S    
C30   C48   S    
C76   C78   S    
C90   C107  S    
C38   C42   A    
C47   H46   S    
C86   C91   A    
Cr7   O17   S    
C40   H41   S    
C80   C97   A    
Cr5   O12   S    
C106  H28   S    
C15   C25   S    
C63   O29   A    
C20   C25   S    
C60   C72   A    
C15   C16   S    
C12   C22   S    
C101  H18   S    
C92   C96   A    
C19   H23   S    
C93   C115  A    
C32   C54   A    
Cr9   O10   S    
Cr2   O2    S    
C24   C29   A    
C87   C114  A    
C36   C53   A    
C55   O17   A    
C45   H48   S    
C5    O2    A    
Cr3   O29   S    
C25   C99   S    
C39   C110  A    
C49   H54   S    
C107  H29   S    
H65   O52   S    
C118  O40   A    
C68   C69   A    
C79   C83   A    
Cr3   O7    S    
C12   C17   S    
Cr6   O38   S    
C56   C113  S    
C91   C117  A    
C13   C28   A    
C7    O59   A    
C2    C27   A    
C44   O20   A    
C90   C116  A    
C104  H21   S    
C50   H60   S    
C43   C48   S    
C59   C73   A    
C48   H58   S    
C85   C103  S    
C8    C114  S    
C84   C102  S    
Cr12  O60   S    
Cr4   O30   S    
C53   C111  S    
C77   H32   S    
C23   C63   S    
C105  H22   S    
C3    C79   S    
C112  O23   A    
C101  O49   S    
Cr4   O4    S    
C97   H15   S    
C69   C78   S    
C120  O42   A    
C31   C49   S    
C50   H55   S    
C7    C59   S    
C107  H25   S    
Cr6   O16   S    
C45   H50   S    
C35   H36   S    
Cr11  O59   S    
C33   O15   A    
C11   O8    A    
C101  C105  S    
C74   H5    S    
C74   C75   S    
C27   C31   A    
C80   C84   A    
C9    C115  S    
C6    C60   S    
C28   C32   A    
C26   C110  A    
Cr7   O39   S    
C3    O48   A    
C72   C73   A    
C14   O54   S    
C119  O46   A    
Cr8   O18   S    
C37   H38   S    
Cr4   O35   S    
C94   C116  A    
C75   H4    S    
C58   C70   A    
C47   C51   S    
Cr4   O8    S    
Cr10  O25   S    
C65   C67   A    
Cr10  O47   S    
C113  O35   A    
C108  H30   S    
C29   C34   A    
C43   H49   S    
C5    O56   A    
C17   C21   S    
C65   C74   S    
Cr2   O10   S    
C78   H8    S    
C1    O18   A    
C102  O50   S    
C25   C64   S    
Cr1   O9    S    
C46   H51   S    
C89   C106  S    
C19   C23   S    
H69   O55   S    
C64   O30   A    
C39   H40   S    
C59   C68   A    
C22   C62   S    
Cr5   O10   S    
Cr11  O21   S    
C87   C105  S    
C45   C49   S    
C63   O25   A    
C16   C20   S    
C43   H47   S    
C74   H3    S    
C27   C45   S    
Cr2   O6    S    
C111  O32   A    
C36   H37   S    
Cr3   O3    S    
Cr10  O11   S    
C6    O58   A    
Cr10  O58   S    
C57   C71   A    
C109  O1    A    
C92   H9    S    
C78   H2    S    
C32   C50   S    
C6    O3    A    
C1    O14   A    
C8    O36   A    
C103  H20   S    
C1    C24   S    
C20   C88   S    
C37   C54   A    
C109  O31   A    
Cr11  O26   S    
C26   C43   S    
C12   C14   S    
C9    O37   A    
C26   C30   A    
C16   C23   S    
C106  H24   S    
C23   C88   S    
C55   C110  S    
C51   H61   S    
Cr8   O9    S    
C46   H44   S    
C4    O60   A    
C31   C53   A    
Cr5   O37   S    
C67   C75   S    
C12   O53   S    
C82   C118  S    
C8    O5    A    
C11   C117  S    
Cr12  O27   S    
C93   C97   A    
C104  C108  S    
C70   C71   A    
C15   O55   S    
C2    C44   S    
Cr7   O13   S    
C111  O12   A    
C76   H7    S    
C21   C61   S    
C81   C119  S    
C66   C77   S    
C30   C52   A    
Cr9   O46   S    
C113  O34   A    
C19   C99   S    
Cr8   O44   S    
Cr5   O15   S    
C95   C100  A    
C18   H12   S    
C36   C40   A    
C91   C108  S    
C10   O7    A    
Cr12  O5    S    
C61   O22   A    
C22   C77   S    
C57   C65   A    
C7    O4    A    
C75   H6    S    
C51   H57   S    
C83   C87   A    
C4    O45   A    
C85   C90   A    
C76   H72   S    
C70   H45   S    
H68   O54   S    
C13   C33   S    
C49   H59   S    
C100  H17   S    
C68   C76   S    
Cr1   O36   S    
Cr2   O28   S    
C102  H19   S    
C62   O28   A    
Cr8   O45   S    
C104  O52   S    
H62   O49   S    
C5    C57   S    
C11   O39   A    
C42   H43   S    
C20   H34   S    
C33   O19   A    
C18   C22   S    
C119  O41   A    
C79   C96   A    
C88   H33   S    
C82   C86   A    
C72   H67   S    
C64   O26   A    
C17   C77   S    
C55   O21   A    
C105  H27   S    
C98   H16   S    
C52   C109  S    
C62   O24   A    
C35   C39   A    
C47   H52   S    
Cr9   O24   S    
C82   C100  A    
C61   O27   A    
C66   H31   S    
C102  C106  S    
C118  O44   A    
H70   O57   S    
C16   O57   S    
C37   C41   A    
C18   C66   S    
Cr12  O31   S    
C44   O16   A    
C88   C99   S    
Cr6   O11   S    
Cr4   O13   S    
C10   O38   A    
C2    C40   A    
C58   C67   A    
C48   H53   S    
Cr7   O43   S    
C108  H26   S    
Cr7   O34   S    
Cr8   O22   S    
C112  O33   A    
C81   C98   A    
H63   O50   S    
C4    C58   S    
C35   C52   A    
C83   C101  S    
C13   C41   A    
C54   C112  S    
C103  C107  S    
Cr12  O9    S    
C96   H14   S    
C94   C98   A    
Cr11  O13   S    
C92   C114  A    
H66   O53   S    
C81   C85   A    
C93   H10   S    
C9    O6    A    
Cr3   O33   S    
C46   C50   S    
