data_str_m9_o3_o18_f0_sra.sym.138
_audit_creation_date              2013-03-05T16:05:18-0500
_audit_creation_method            fapswitch 2.2
_symmetry_space_group_name_H-M    P1
_symmetry_Int_Tables_number       1
_space_group_crystal_system       triclinic
_cell_length_a                    27.201482
_cell_length_b                    7.199742
_cell_length_c                    22.781634
_cell_angle_alpha                 89.922457
_cell_angle_beta                  101.567521
_cell_angle_gamma                 89.948523
_cell_volume                      4371.01129423

loop_
_atom_site_label
_atom_site_type_symbol
_atom_site_description
_atom_site_fract_x
_atom_site_fract_y
_atom_site_fract_z
_atom_type_partial_charge
O1    O     O_R   0.707300 0.594030 0.176840 -0.579046
O2    O     O_R   0.292700 0.405970 0.823160 -0.578993
O3    O     O_R   0.792700 0.094030 0.323160 -0.578196
O4    O     O_R   0.207300 0.905970 0.676840 -0.578199
O5    O     O_R   0.697330 0.262360 0.295660 -0.539946
O6    O     O_R   0.302670 0.737640 0.704340 -0.539954
O7    O     O_R   0.802670 0.762360 0.204340 -0.540456
O8    O     O_R   0.197330 0.237640 0.795660 -0.540354
C1    C     C_R   0.684129 0.432365 0.310757 0.971504
C2    C     C_R   0.315870 0.567635 0.689242 0.971494
C3    C     C_R   0.815909 0.932356 0.189286 0.970606
C4    C     C_R   0.184094 0.067644 0.810718 0.970523
O9    O     O_R   0.701410 0.264250 0.175600 -0.579606
O10   O     O_R   0.298590 0.735750 0.824400 -0.579656
O11   O     O_R   0.798590 0.764250 0.324400 -0.579945
O12   O     O_R   0.201410 0.235750 0.675600 -0.579947
O13   O     O_R   0.796800 0.094950 0.202240 -0.592240
O14   O     O_R   0.203200 0.905050 0.797760 -0.592242
O15   O     O_R   0.703200 0.594950 0.297760 -0.592763
O16   O     O_R   0.296800 0.405050 0.702240 -0.592767
C5    C     C_R   0.689819 0.432961 0.153328 1.025133
C6    C     C_R   0.310176 0.567037 0.846675 1.025351
C7    C     C_R   0.810238 0.932549 0.346661 1.024699
C8    C     C_R   0.189762 0.067451 0.653339 1.024710
O17   O     O_3   0.781290 0.427390 0.258880 -0.269090
O18   O     O_3   0.218710 0.572610 0.741120 -0.269049
O19   O     O_3   0.718710 0.927390 0.241120 -0.269419
O20   O     O_3   0.281290 0.072610 0.758880 -0.269446
V1    V     V_3+5 0.744190 0.152150 0.248350 1.290808
V2    V     V_3+5 0.255810 0.847850 0.751650 1.290751
V3    V     V_3+5 0.755810 0.652150 0.251650 1.290747
V4    V     V_3+5 0.244190 0.347850 0.748350 1.290803
C9    C     C_R   0.155651 0.061172 0.593952 -0.273512
C10   C     C_R   0.844348 0.938832 0.406048 -0.273499
C11   C     C_R   0.344112 0.558518 0.906125 -0.277103
C12   C     C_R   0.655875 0.441425 0.093882 -0.277032
C13   C     C_R   0.139708 0.112480 0.486854 -0.190475
C14   C     C_R   0.860288 0.887576 0.513148 -0.190476
C15   C     C_R   0.359171 0.590115 0.013907 -0.198820
C16   C     C_R   0.640796 0.409078 0.986124 -0.198790
C17   C     C_R   0.173788 0.097866 0.541518 0.329153
C18   C     C_R   0.826209 0.902183 0.458483 0.329131
C19   C     C_R   0.325748 0.591281 0.958581 0.333438
C20   C     C_R   0.674214 0.408079 0.041448 0.333738
C21   C     C_R   0.104151 0.028707 0.590095 -0.226721
C22   C     C_R   0.895849 0.971270 0.409904 -0.226753
C23   C     C_R   0.395621 0.526336 0.910023 -0.227624
C24   C     C_R   0.604378 0.473901 0.089972 -0.227543
C25   C     C_R   0.069177 0.035441 0.534305 0.112110
C26   C     C_R   0.930822 0.964561 0.465696 0.112117
C27   C     C_R   0.430324 0.524989 0.966086 0.110734
C28   C     C_R   0.569664 0.474846 0.033915 0.110675
C29   C     C_R   0.087556 0.089418 0.482592 0.074312
C30   C     C_R   0.912441 0.910613 0.517410 0.074310
C31   C     C_R   0.410732 0.550576 0.018952 0.072058
C32   C     C_R   0.589247 0.448872 0.981059 0.072079
C33   C     C_R   0.016733 0.991931 0.528428 0.091263
C34   C     C_R   0.983265 0.008072 0.471573 0.091262
C35   C     C_R   0.483618 0.500373 0.971192 0.088654
C36   C     C_R   0.516370 0.499398 0.028807 0.088638
C37   C     C_R   0.002893 0.072823 0.422594 -0.268069
C38   C     C_R   0.997105 0.927199 0.577409 -0.268062
C39   C     C_R   0.494742 0.518489 0.079756 -0.273433
C40   C     C_R   0.505242 0.480994 0.920248 -0.273402
C41   C     C_R   0.053597 0.115187 0.427362 -0.069038
C42   C     C_R   0.946399 0.884855 0.572642 -0.069051
C43   C     C_R   0.443205 0.540023 0.075778 -0.071029
C44   C     C_R   0.556773 0.459241 0.924231 -0.071031
H1    H     H_    0.907349 0.996145 0.368025 0.143438
H2    H     H_    0.092654 0.003793 0.631973 0.143448
H3    H     H_    0.593016 0.497543 0.131943 0.143102
H4    H     H_    0.406998 0.503279 0.868031 0.143154
H5    H     H_    0.154982 0.135966 0.447252 0.208204
H6    H     H_    0.845014 0.864122 0.552752 0.208217
H7    H     H_    0.343969 0.621298 0.053032 0.211104
H8    H     H_    0.655993 0.377523 0.947020 0.211010
H9    H     H_    0.979046 0.098733 0.379618 0.138677
H10   H     H_    0.020950 0.901301 0.620386 0.138682
H11   H     H_    0.517038 0.511439 0.124392 0.142125
H12   H     H_    0.482943 0.487753 0.875610 0.142040
C45   C     C_R   0.854309 0.091494 0.112130 -0.050468
C46   C     C_R   0.145720 0.908551 0.887903 -0.050919
C47   C     C_R   0.646038 0.590581 0.388278 -0.052734
C48   C     C_R   0.353962 0.409416 0.611722 -0.052687
H13   H     H_    0.825633 0.197326 0.108521 0.206554
H14   H     H_    0.174409 0.802761 0.891526 0.206455
H15   H     H_    0.674916 0.695605 0.392123 0.204090
H16   H     H_    0.325086 0.304386 0.607881 0.204102
C49   C     C_R   0.889244 0.104801 0.074979 -0.076101
C50   C     C_R   0.110788 0.895242 0.925059 -0.076082
C51   C     C_R   0.611092 0.603866 0.425429 -0.076569
C52   C     C_R   0.388907 0.396132 0.574571 -0.076573
H17   H     H_    0.886397 0.220285 0.043979 0.139748
H18   H     H_    0.113647 0.779791 0.956073 0.139806
H19   H     H_    0.614104 0.718524 0.456650 0.139861
H20   H     H_    0.385896 0.281469 0.543351 0.139856
C53   C     C_R   0.926617 0.969238 0.076803 0.036942
C54   C     C_R   0.073405 0.030767 0.923223 0.036961
C55   C     C_R   0.573490 0.469290 0.423315 0.037322
C56   C     C_R   0.426508 0.530713 0.576681 0.037313
C57   C     C_R   0.928276 0.820207 0.117140 -0.247340
C58   C     C_R   0.071730 0.179762 0.882870 -0.247331
C59   C     C_R   0.571617 0.321261 0.382702 -0.246535
C60   C     C_R   0.428380 0.678747 0.617292 -0.246518
H21   H     H_    0.957847 0.717533 0.120583 0.157630
H22   H     H_    0.042151 0.282408 0.879420 0.157632
H23   H     H_    0.541880 0.219416 0.379039 0.157953
H24   H     H_    0.458115 0.780597 0.620952 0.157952
C61   C     C_R   0.893837 0.806791 0.155656 0.394107
C62   C     C_R   0.106163 0.193174 0.844347 0.394169
C63   C     C_R   0.606054 0.307894 0.344189 0.393121
C64   C     C_R   0.393943 0.692114 0.655806 0.393130
C65   C     C_R   0.855525 0.942844 0.152553 -0.314611
C66   C     C_R   0.144485 0.057157 0.847460 -0.314427
C67   C     C_R   0.644574 0.442921 0.347559 -0.312427
C68   C     C_R   0.355426 0.557081 0.652440 -0.312447
C69   C     C_R   0.980630 0.826341 0.010807 -0.144211
C70   C     C_R   0.019395 0.173661 0.989222 -0.144207
C71   C     C_R   0.519146 0.326150 0.488931 -0.143584
C72   C     C_R   0.480851 0.673852 0.511064 -0.143586
H25   H     H_    0.965573 0.690665 0.017703 0.121333
H26   H     H_    0.034452 0.309337 0.982324 0.121349
H27   H     H_    0.534013 0.190279 0.481817 0.121017
H28   H     H_    0.465984 0.809723 0.518178 0.121014
C73   C     C_R   0.015880 0.841219 0.973880 -0.150105
C74   C     C_R   0.984146 0.158783 0.026151 -0.150119
C75   C     C_R   0.483833 0.340984 0.525781 -0.148893
C76   C     C_R   0.516164 0.659018 0.474214 -0.148899
H29   H     H_    0.026937 0.716506 0.953344 0.124357
H30   H     H_    0.973091 0.283497 0.046687 0.124345
H31   H     H_    0.472548 0.216052 0.546046 0.124041
H32   H     H_    0.527449 0.783950 0.453950 0.124043
C77   C     C_R   0.035780 0.015085 0.962588 0.142085
C78   C     C_R   0.964245 0.984917 0.037441 0.142118
C79   C     C_R   0.464167 0.515042 0.537349 0.142135
C80   C     C_R   0.535830 0.484960 0.462647 0.142128
C81   C     C_2   0.068260 0.193604 0.372964 0.556935
H33   H     H_    0.049023 0.147775 0.328949 0.035700
O21   O     O_2   0.099133 0.318117 0.376330 -0.551258
C82   C     C_2   0.931733 0.806474 0.627044 0.556952
H34   H     H_    0.950974 0.852308 0.671057 0.035706
O22   O     O_2   0.900855 0.681983 0.623683 -0.551258
C83   C     C_2   0.425565 0.544748 0.133444 0.555131
H35   H     H_    0.448620 0.610627 0.172243 0.034497
O23   O     O_2   0.387368 0.464593 0.139519 -0.546824
C84   C     C_2   0.574407 0.454066 0.866565 0.555137
H36   H     H_    0.551325 0.388118 0.827798 0.034513
O24   O     O_2   0.612636 0.533920 0.860447 -0.546808
N1    N     N_R   0.773376 0.879464 0.457177 0.221013
O25   O     O_R   0.740391 0.978774 0.421093 -0.425452
O26   O     O_R   0.758295 0.774658 0.496671 -0.383180
N2    N     N_R   0.226619 0.120621 0.542826 0.221006
O27   O     O_R   0.259607 0.021262 0.578889 -0.425451
O28   O     O_R   0.241697 0.225525 0.503352 -0.383191
N3    N     N_R   0.726766 0.375911 0.043358 0.222141
O29   O     O_R   0.760594 0.471427 0.079400 -0.425336
O30   O     O_R   0.740888 0.268303 0.003941 -0.387497
N4    N     N_R   0.273178 0.623057 0.956698 0.222149
O31   O     O_R   0.239378 0.528155 0.920412 -0.425414
O32   O     O_R   0.259006 0.729544 0.996361 -0.387338
N5    N     N_R   0.900204 0.660399 0.199447 0.242197
O33   O     O_R   0.914276 0.495993 0.185716 -0.402364
O34   O     O_R   0.900394 0.698446 0.255327 -0.418114
N6    N     N_R   0.099782 0.339525 0.800541 0.242202
O35   O     O_R   0.085697 0.503928 0.814256 -0.402264
O36   O     O_R   0.099598 0.301437 0.744665 -0.418148
N7    N     N_R   0.599488 0.162678 0.300131 0.241844
O37   O     O_R   0.585151 0.998305 0.313546 -0.401629
O38   O     O_R   0.599443 0.201976 0.244340 -0.422155
N8    N     N_R   0.400508 0.837339 0.699860 0.241849
O39   O     O_R   0.414841 0.001714 0.686442 -0.401648
O40   O     O_R   0.400556 0.798050 0.755654 -0.422171

loop_
_geom_bond_atom_site_label_1
_geom_bond_atom_site_label_2
_geom_bond_distance
_ccdc_geom_bond_type
O17   V3    1.754312 S    
C55   C59   1.406555 A    
O1    C5    1.326018 A    
O19   V1    1.755869 S    
C9    C21   1.405739 A    
O3    C7    1.326950 A    
C45   C49   1.396814 A    
C10   C18   1.405636 A    
O1    V3    1.980385 S    
C19   N4    1.440070 S    
C11   C23   1.405048 A    
N5    O33   1.301417 A    
C2    C68   1.492720 S    
C33   C38   1.409046 A    
N7    O38   1.301527 A    
C5    C12   1.479367 S    
C39   H11   1.075601 S    
O7    C3    1.339593 A    
C6    C11   1.479364 S    
C81   O21   1.220843 D    
C54   C77   1.494150 S    
C35   C40   1.409414 A    
C26   C30   1.422747 A    
C36   C39   1.409387 A    
C40   C44   1.395060 A    
O2    V4    1.980386 S    
O9    V1    1.993393 S    
N6    O35   1.301418 A    
C75   C79   1.407945 A    
C14   C18   1.399210 A    
C76   C80   1.407944 A    
O16   V4    1.980858 S    
C59   H23   1.083084 S    
O4    C8    1.326951 A    
N3    O30   1.301482 A    
N8    O39   1.301408 A    
C74   H30   1.082886 S    
C57   C61   1.409411 A    
C83   H35   1.085774 S    
C60   H24   1.083085 S    
C52   H20   1.082788 S    
O13   V1    1.980919 S    
C59   C63   1.409343 A    
C70   H26   1.082936 S    
C32   C44   1.415259 A    
O3    V1    1.978910 S    
C18   N1    1.440907 S    
C69   H25   1.082935 S    
C22   H1    1.076794 S    
C28   C36   1.441608 A    
C13   C17   1.399206 A    
C1    O15   1.337450 A    
C56   C60   1.406554 A    
C64   N8    1.436561 S    
C37   H9    1.076443 S    
C16   C32   1.412744 A    
O2    C6    1.325994 A    
C58   H22   1.083095 S    
C10   C22   1.405741 A    
C15   H7    1.078934 S    
C11   C19   1.404721 A    
C62   C66   1.420920 A    
C16   C20   1.398373 A    
C4    C66   1.492915 S    
C56   C79   1.494376 S    
C61   C65   1.420924 A    
C13   C29   1.412348 A    
C34   C37   1.409042 A    
O11   C7    1.328053 A    
O15   V3    1.980855 S    
C35   C36   1.430926 A    
C48   C68   1.407222 A    
N4    O32   1.301503 A    
C40   H12   1.075570 S    
N1    O26   1.301517 A    
C43   C83   1.486639 S    
C53   C78   1.494169 S    
O10   V2    1.993395 S    
C69   C78   1.407028 A    
C76   H32   1.082878 S    
N5    O34   1.301529 A    
C45   H13   1.081124 S    
C50   H18   1.082796 S    
C84   O24   1.220772 D    
C57   H21   1.083093 S    
C15   C31   1.412755 A    
O7    V3    1.991607 S    
C38   C42   1.395658 A    
O8    V4    1.991609 S    
C47   C67   1.407221 A    
C82   H34   1.085796 S    
C46   C66   1.406996 A    
C2    O16   1.337451 A    
N7    O37   1.301408 A    
C17   N2    1.440892 S    
C62   N6    1.436556 S    
O18   V4    1.754311 S    
C23   C27   1.427885 A    
C54   C58   1.406554 A    
O4    V2    1.978910 S    
C16   H8    1.078969 S    
C49   C53   1.403186 A    
C1    C67   1.492718 S    
C39   C43   1.395050 A    
O5    C1    1.339874 A    
C37   C41   1.395653 A    
C31   C43   1.415266 A    
C14   C30   1.412349 A    
C21   C25   1.427473 A    
O8    C4    1.339590 A    
C7    C10   1.479930 S    
C29   C41   1.415560 A    
C26   C34   1.440618 A    
O9    C5    1.328824 A    
C48   C52   1.397064 A    
C70   C77   1.407019 A    
O14   V2    1.980913 S    
O6    V2    1.991857 S    
N2    O28   1.301550 A    
N4    O31   1.301310 A    
C12   C20   1.404621 A    
C27   C35   1.441650 A    
C24   H3    1.075932 S    
C4    O14   1.337541 A    
O5    V1    1.991857 S    
C64   C68   1.420779 A    
C44   C84   1.486663 S    
C52   C56   1.403377 A    
C60   C64   1.409343 A    
C84   H36   1.085778 S    
C14   H6    1.079450 S    
C73   C77   1.407955 A    
C83   O23   1.220776 D    
C13   H5    1.079445 S    
C3    O13   1.337547 A    
C21   H2    1.076796 S    
C20   N3    1.439924 S    
C38   H10   1.076433 S    
C48   H16   1.081719 S    
C82   O22   1.220833 D    
C47   H15   1.081722 S    
O6    C2    1.339874 A    
C25   C33   1.440626 A    
C15   C19   1.398455 A    
C72   C76   1.400825 A    
O11   V3    1.996055 S    
C30   C42   1.415567 A    
C71   H27   1.082934 S    
O12   V4    1.996057 S    
C47   C51   1.397065 A    
C81   H33   1.085794 S    
C22   C26   1.427481 A    
C8    C9    1.479937 S    
C46   C50   1.396819 A    
C72   C79   1.407103 A    
C9    C17   1.405630 A    
O10   C6    1.328843 A    
N6    O36   1.301530 A    
C41   C81   1.486741 S    
C61   N5    1.436556 S    
N1    O25   1.301361 A    
C71   C80   1.407102 A    
C46   H14   1.081139 S    
C33   C34   1.430548 A    
N8    O40   1.301528 A    
C25   C29   1.422756 A    
O20   V2    1.755871 S    
C55   C80   1.494371 S    
C12   C24   1.405047 A    
C27   C31   1.423490 A    
C49   H17   1.082794 S    
C3    C65   1.492933 S    
C75   H31   1.082879 S    
C23   H4    1.075906 S    
C58   C62   1.409407 A    
C72   H28   1.082934 S    
C63   N7    1.436561 S    
C51   H19   1.082788 S    
C73   H29   1.082887 S    
C24   C28   1.427912 A    
C42   C82   1.486751 S    
N2    O27   1.301356 A    
C74   C78   1.407965 A    
O12   C8    1.328054 A    
C45   C65   1.406991 A    
N3    O29   1.301343 A    
C63   C67   1.420780 A    
C70   C74   1.400725 A    
C51   C55   1.403376 A    
C69   C73   1.400728 A    
C50   C54   1.403184 A    
C53   C57   1.406558 A    
C28   C32   1.423489 A    
C71   C75   1.400824 A    
