data_str_m12_o9_o24_f0_bcu.sym.163
_audit_creation_date              2013-03-05T15:58:17-0500
_audit_creation_method            fapswitch 2.2
_symmetry_space_group_name_H-M    P1
_symmetry_Int_Tables_number       1
_space_group_crystal_system       triclinic
_cell_length_a                    14.933254
_cell_length_b                    14.970682
_cell_length_c                    15.242905
_cell_angle_alpha                 110.279105
_cell_angle_beta                  109.295761
_cell_angle_gamma                 108.009408
_cell_volume                      2648.98825663

loop_
_atom_site_label
_atom_site_type_symbol
_atom_site_description
_atom_site_fract_x
_atom_site_fract_y
_atom_site_fract_z
_atom_type_partial_charge
C1    C     C_R   0.976909 0.253354 0.065253 -0.095104
C2    C     C_R   0.084565 0.800644 0.998654 -0.110809
H1    H     H_    0.940762 0.240796 0.112830 0.099159
H2    H     H_    0.142067 0.828664 0.973746 0.106506
N1    N     N_R   0.947560 0.293820 0.002910 -0.055660
N2    N     N_R   0.052440 0.706180 0.997090 -0.056691
C3    C     C_R   0.313807 0.761528 0.223386 0.524768
C4    C     C_R   0.705660 0.196369 0.793268 0.445878
N3    N     N_R   0.208960 0.706170 0.152110 -0.077854
N4    N     N_R   0.791040 0.293830 0.847890 -0.115642
C5    C     C_R   0.209638 0.409450 0.901881 0.502123
C6    C     C_R   0.773761 0.590867 0.025833 0.591975
N5    N     N_R   0.154330 0.443160 0.946140 -0.087759
N6    N     N_R   0.845670 0.556840 0.053860 -0.058697
C7    C     C_R   0.998943 0.590640 0.299357 0.520624
C8    C     C_R   0.950265 0.411781 0.687189 0.598173
N7    N     N_R   0.002190 0.556820 0.208880 -0.073727
N8    N     N_R   0.997810 0.443180 0.791120 -0.073967
C9    C     C_R   0.298249 0.589533 0.992495 -0.120648
C10   C     C_R   0.685320 0.409571 0.934465 -0.170418
H3    H     H_    0.350021 0.672276 0.017448 0.204797
H4    H     H_    0.622685 0.326022 0.884058 0.149745
N9    N     N_R   0.210550 0.556810 0.002910 -0.078680
N10   N     N_R   0.789450 0.443190 0.997090 -0.074568
C11   C     C_R   0.920483 0.409944 0.215102 -0.195219
C12   C     C_R   0.023295 0.592468 0.781703 -0.232859
H5    H     H_    0.872912 0.326724 0.191136 0.123058
H6    H     H_    0.043361 0.675260 0.805364 0.156164
N11   N     N_R   0.945970 0.443180 0.152110 -0.070811
N12   N     N_R   0.054030 0.556820 0.847890 -0.074456
C13   C     C_R   0.219719 0.743423 0.310085 -0.146253
C14   C     C_R   0.791931 0.200357 0.699591 -0.130694
H7    H     H_    0.195783 0.739546 0.368289 0.167101
H8    H     H_    0.823257 0.178565 0.646913 0.183123
N13   N     N_R   0.151530 0.706170 0.208880 -0.075457
N14   N     N_R   0.848470 0.293830 0.791120 -0.076148
C15   C     C_R   0.072221 0.255627 0.978851 -0.059362
C16   C     C_R   0.997396 0.801847 0.092064 -0.033832
H9    H     H_    0.128405 0.249647 0.951071 0.159449
H10   H     H_    0.982662 0.834010 0.157918 0.186058
N15   N     N_R   0.004980 0.293810 0.946140 -0.048679
N16   N     N_R   0.995020 0.706190 0.053860 -0.060812
C17   C     C_R   0.057444 0.230154 0.055087 0.041779
C18   C     C_R   0.048813 0.861163 0.055731 0.019108
C19   C     C_R   0.323286 0.785930 0.324638 -0.131069
C20   C     C_R   0.700863 0.136795 0.697775 -0.026039
C21   C     C_R   0.298934 0.499423 0.928466 -0.134110
C22   C     C_R   0.672933 0.500819 0.950879 -0.108004
C23   C     C_R   0.953116 0.501110 0.308109 -0.063546
C24   C     C_R   0.965191 0.505352 0.679592 -0.101775
H11   H     H_    0.454736 0.258366 0.958429 0.176285
H12   H     H_    0.600987 0.834644 0.012319 0.213316
C25   C     C_R   0.160424 0.036378 0.079395 -0.159087
C26   C     C_R   0.045603 0.126688 0.149293 -0.184590
C27   C     C_R   0.289601 0.151535 0.901130 0.299248
C28   C     C_R   0.762950 0.901925 0.140795 0.222043
Ni1   Ni    Ni4+2 0.869690 0.369690 0.000000 0.204125
Ni2   Ni    Ni4+2 0.130310 0.630310 0.000000 0.228605
Ni3   Ni    Ni4+2 0.001390 0.369680 0.869810 0.279884
Ni4   Ni    Ni4+2 0.998610 0.630320 0.130190 0.289970
C29   C     C_R   0.210751 0.119099 0.931647 0.368458
C30   C     C_R   0.874278 0.953106 0.171433 0.417515
H13   H     H_    0.501802 0.350729 0.148315 0.190945
H14   H     H_    0.654822 0.836382 0.877968 0.195202
C31   C     C_R   0.645212 0.266414 0.104324 -0.425577
C32   C     C_R   0.315609 0.742488 0.845441 -0.304958
H15   H     H_    0.612801 0.281077 0.039655 0.189543
H16   H     H_    0.380554 0.727791 0.883136 0.167569
C33   C     C_R   0.705126 0.353201 0.210219 0.340160
C34   C     C_R   0.230073 0.662258 0.741440 0.386539
C35   C     C_R   0.763332 0.337790 0.292514 -0.047008
C36   C     C_R   0.143521 0.680589 0.693965 -0.037169
C37   C     C_R   0.749796 0.233710 0.269421 -0.205350
C38   C     C_R   0.149900 0.781864 0.746754 -0.255638
H17   H     H_    0.795913 0.221556 0.331569 0.160251
H18   H     H_    0.084863 0.797266 0.710619 0.158263
C39   C     C_R   0.683573 0.146462 0.164727 -0.091212
C40   C     C_R   0.234654 0.859942 0.850173 -0.160867
H19   H     H_    0.675924 0.067450 0.148735 0.197407
H20   H     H_    0.234541 0.934786 0.891206 0.150397
C41   C     C_R   0.631621 0.162344 0.080930 0.382937
C42   C     C_R   0.316318 0.839699 0.902032 0.428776
C43   C     C_R   0.859712 0.440002 0.490069 -0.250364
C44   C     C_R   0.036386 0.588003 0.499337 -0.222709
H21   H     H_    0.792285 0.381961 0.487414 0.163676
H22   H     H_    0.105827 0.644381 0.503005 0.157113
C45   C     C_R   0.953910 0.516926 0.587464 0.092058
C46   C     C_R   0.945742 0.505985 0.401131 0.064846
C47   C     C_R   0.042237 0.594529 0.592971 0.139630
C48   C     C_R   0.855958 0.431047 0.395455 0.154856
H23   H     H_    0.423567 0.424921 0.021850 0.145227
H24   H     H_    0.539959 0.586393 0.824035 0.157290
H25   H     H_    0.364937 0.298836 0.201766 0.165502
H26   H     H_    0.846603 0.911719 0.926808 0.167714
C49   C     C_R   0.238476 0.174785 0.040391 -0.043112
C50   C     C_R   0.903855 0.953805 0.093081 -0.015824
C51   C     C_R   0.421210 0.285909 0.088196 -0.137150
C52   C     C_R   0.715692 0.867149 0.959146 -0.090230
C53   C     C_R   0.169232 0.971791 0.444782 -0.258038
C54   C     C_R   0.897405 0.019381 0.580892 -0.165266
H27   H     H_    0.129976 0.001403 0.397141 0.193324
H28   H     H_    0.964626 0.017058 0.633993 0.212887
C55   C     C_R   0.266931 0.976815 0.453807 -0.204158
C56   C     C_R   0.797746 0.974876 0.576331 -0.214334
H29   H     H_    0.301944 0.010221 0.413191 0.181453
H30   H     H_    0.790007 0.940031 0.626685 0.178648
C57   C     C_R   0.316732 0.934314 0.511013 -0.076202
C58   C     C_R   0.711120 0.983219 0.513735 -0.084724
C59   C     C_R   0.271479 0.892220 0.564675 0.304760
C60   C     C_R   0.722609 0.030423 0.449131 0.328775
C61   C     C_R   0.175113 0.890456 0.557776 -0.162941
C62   C     C_R   0.821969 0.070469 0.451421 -0.192649
H31   H     H_    0.138312 0.855525 0.596282 0.143503
H32   H     H_    0.833003 0.109792 0.405340 0.143398
C63   C     C_R   0.121703 0.926582 0.495298 0.687781
C64   C     C_R   0.910719 0.070210 0.520421 0.588848
C65   C     C_R   0.510671 0.013881 0.605386 -0.075320
C66   C     C_R   0.518777 0.866417 0.440391 -0.204763
H33   H     H_    0.504251 0.071835 0.666161 0.184854
H34   H     H_    0.521638 0.808770 0.375867 0.165185
C67   C     C_R   0.610203 0.031103 0.611164 0.095642
C68   C     C_R   0.419699 0.859520 0.429070 0.114762
C69   C     C_R   0.614558 0.956704 0.526775 0.100719
C70   C     C_R   0.416126 0.933075 0.514240 0.098168
C71   C     C_R   0.394777 0.232338 0.980883 -0.218688
C72   C     C_R   0.685491 0.866147 0.036064 -0.255307
C73   C     C_R   0.016784 0.019961 0.122993 0.132112
C74   C     C_R   0.166226 0.129803 0.076675 0.137086
H35   H     H_    0.213005 0.006544 0.061005 0.157831
H36   H     H_    0.002458 0.161146 0.181537 0.134674
C75   C     C_R   0.342971 0.258403 0.117829 -0.187750
C76   C     C_R   0.824095 0.908641 0.986823 -0.230247
C77   C     C_R   0.076870 0.974229 0.089012 0.015929
C78   C     C_R   0.099506 0.170658 0.102428 0.018730
C79   C     C_3   0.462645 0.398613 0.876381 -0.188961
C80   C     C_3   0.497382 0.603526 0.964234 -0.181996
C81   C     C_3   0.402643 0.444836 0.816783 -0.041084
C82   C     C_3   0.556518 0.557602 0.023559 -0.009066
H37   H     H_    0.337000 0.398347 0.732052 0.179507
H38   H     H_    0.619952 0.605443 0.109298 0.217406
H39   H     H_    0.448335 0.314326 0.836485 0.175258
H40   H     H_    0.505872 0.685315 0.000922 0.168878
C83   C     C_3   0.391397 0.501025 0.914822 0.147861
C84   C     C_3   0.569559 0.501052 0.926714 0.111972
C85   C     C_3   0.450351 0.455512 0.973919 -0.166550
C86   C     C_3   0.511862 0.547850 0.867003 -0.134850
N17   N     N_R   0.263605 0.107500 0.790688 0.221274
O1    O     O_R   0.338372 0.108068 0.764720 -0.396402
O2    O     O_R   0.171550 0.086433 0.718926 -0.458506
N18   N     N_R   0.727970 0.876928 0.210711 0.221122
O3    O     O_R   0.630957 0.856524 0.194558 -0.360586
O4    O     O_R   0.782655 0.850729 0.274124 -0.381775
N19   N     N_R   0.565887 0.073752 0.972367 0.266802
O5    O     O_R   0.496889 0.080812 0.899907 -0.307271
O6    O     O_R   0.572676 0.984619 0.945288 -0.379360
N20   N     N_R   0.398537 0.916757 0.011941 0.249857
O7    O     O_R   0.466759 0.892813 0.064316 -0.345720
O8    O     O_R   0.402437 0.009241 0.062415 -0.399987
N21   N     N_R   0.713477 0.457941 0.232287 0.228415
O9    O     O_R   0.729926 0.525068 0.324759 -0.390924
O10   O     O_R   0.694709 0.482886 0.156937 -0.442686
N22   N     N_R   0.233926 0.564906 0.685964 0.239261
O11   O     O_R   0.326694 0.568695 0.703246 -0.402407
O12   O     O_R   0.146391 0.472105 0.619491 -0.399596
O13   O     O_3   0.107466 0.033439 0.859415 -0.754704
H41   H     H_    0.107238 0.985274 0.795564 0.340525
O14   O     O_3   0.955422 0.004611 0.276071 -0.759985
H42   H     H_    0.924841 0.023095 0.323885 0.354422
O15   O     O_3   0.392026 0.800703 0.198140 -0.718202
H43   H     H_    0.454217 0.866788 0.263485 0.368382
O16   O     O_3   0.655362 0.151677 0.839902 -0.709822
H44   H     H_    0.689599 0.208344 0.915900 0.314175
O17   O     O_3   0.021372 0.912109 0.481471 -0.725439
H45   H     H_    0.989437 0.929841 0.425974 0.363918
O18   O     O_3   0.009731 0.124136 0.529838 -0.727742
H46   H     H_    0.065531 0.123876 0.586928 0.374085
N23   N     N_R   0.319514 0.845665 0.620874 0.238671
O19   O     O_R   0.342549 0.772029 0.574159 -0.399204
O20   O     O_R   0.342025 0.878108 0.719879 -0.311293
N24   N     N_R   0.639776 0.049957 0.391290 0.235703
O21   O     O_R   0.587312 0.085706 0.434597 -0.424700
O22   O     O_R   0.628502 0.048888 0.302628 -0.335992
O23   O     O_3   0.168038 0.303974 0.824168 -0.745996
H47   H     H_    0.219481 0.300862 0.797227 0.336675
O24   O     O_3   0.796178 0.696885 0.074617 -0.766162
H48   H     H_    0.732966 0.700762 0.031605 0.302705
O25   O     O_3   0.006526 0.690377 0.351371 -0.769413
H49   H     H_    0.972162 0.687642 0.396601 0.350919
O26   O     O_3   0.917000 0.309769 0.608452 -0.770994
H50   H     H_    0.910015 0.312143 0.542726 0.326160

loop_
_geom_bond_atom_site_label_1
_geom_bond_atom_site_label_2
_geom_bond_distance
_ccdc_geom_bond_type
N9    Ni2   1.860781 S    
C53   C55   1.394793 A    
O16   H44   0.991064 S    
O13   H41   0.988440 S    
C30   C50   1.405701 A    
N7    N11   1.401485 A    
O15   H43   0.985303 S    
N2    Ni2   1.860602 S    
C43   C45   1.393545 A    
N17   O1    1.300735 A    
C54   C64   1.407827 A    
C62   C64   1.395528 A    
C6    C22   1.389270 A    
N14   Ni3   1.893445 S    
C66   H34   1.084506 S    
C56   H30   1.083257 S    
O17   H45   0.990362 S    
C81   H37   1.109828 S    
N5    N9    1.401608 A    
N22   O11   1.300630 A    
C38   H18   1.082957 S    
C1    N1    1.322921 A    
C14   N14   1.324824 A    
N20   O7    1.300154 A    
N17   O2    1.297967 A    
C65   C70   1.367296 A    
C8    C24   1.400652 A    
C16   N16   1.329662 A    
C80   C83   1.528455 S    
C65   H33   1.083099 S    
C53   C63   1.407184 A    
C9    C21   1.369292 A    
C32   H16   1.081864 S    
C6    O24   1.368553 S    
C82   C85   1.526175 S    
C26   C78   1.403541 A    
C21   C83   1.457105 S    
C54   C56   1.396420 A    
C41   N19   1.435646 S    
C22   C84   1.465330 S    
C3    N3    1.329641 A    
N3    Ni2   1.896131 S    
C66   C68   1.397847 A    
N6    N10   1.401607 A    
C33   C35   1.409379 A    
C65   C67   1.394364 A    
C80   H40   1.100254 S    
C59   C61   1.399001 A    
N12   Ni2   1.896103 S    
C5    C21   1.382221 A    
C49   C74   1.458336 S    
C1    C17   1.391093 A    
C83   C85   1.524147 S    
C10   N10   1.335887 A    
C2    C18   1.386551 A    
N10   Ni1   1.860779 S    
C79   C85   1.539153 S    
N4    N14   1.405270 A    
C13   H7    1.072711 S    
C20   C67   1.457937 S    
N8    N12   1.401484 A    
C28   C72   1.406121 A    
N19   O6    1.300280 A    
C29   O13   1.382608 S    
C4    O16   1.374363 S    
C50   C76   1.402541 A    
C28   C30   1.421346 A    
C42   N20   1.438774 S    
C56   C58   1.402221 A    
H14   C52   1.082692 S    
C30   O14   1.378148 S    
C81   C83   1.533249 S    
C49   C75   1.394959 A    
C37   H17   1.081937 S    
C23   C46   1.436797 S    
C2    N2    1.334250 A    
C57   C70   1.474868 S    
C34   N22   1.439497 S    
C62   H32   1.081765 S    
N24   O22   1.299232 A    
C57   C59   1.407886 A    
N22   O12   1.300550 A    
C39   H19   1.081572 S    
C11   N11   1.330409 A    
C26   H36   1.077888 S    
H24   C86   1.109870 S    
H11   C71   1.072346 S    
C27   C71   1.397124 A    
C81   C86   1.557460 S    
N4    Ni1   1.896132 S    
C25   C77   1.393405 A    
C51   C75   1.385218 A    
C51   C71   1.393870 A    
N16   Ni4   1.886579 S    
O14   H42   0.987227 S    
C35   C37   1.403777 A    
H12   C72   1.075957 S    
C31   H15   1.074480 S    
C7    O25   1.373446 S    
H26   C76   1.083886 S    
C50   C73   1.476063 S    
N13   Ni4   1.893448 S    
C1    H1    1.069169 S    
C14   H8    1.063501 S    
C15   H9    1.070637 S    
C15   C17   1.403245 A    
C17   C78   1.483417 S    
C9    N9    1.332264 A    
O23   H47   0.989103 S    
C16   C18   1.373007 A    
C25   C74   1.390343 A    
C74   C78   1.410583 A    
C32   C42   1.405836 A    
C84   C86   1.535780 S    
C61   C63   1.399063 A    
C40   C42   1.400498 A    
C27   N17   1.435228 S    
N21   O9    1.301412 A    
C60   N24   1.440350 S    
C60   C62   1.401217 A    
N21   O10   1.298646 A    
C5    O23   1.375861 S    
C61   H31   1.080839 S    
C8    N8    1.329985 A    
N15   Ni3   1.886579 S    
C58   C60   1.420441 A    
C10   C22   1.383046 A    
C82   H38   1.109847 S    
C24   C45   1.435560 S    
N23   O19   1.301082 A    
C36   C38   1.403433 A    
C79   C84   1.533103 S    
C53   H27   1.081695 S    
C10   H4    1.079412 S    
C12   N12   1.316034 A    
C3    O15   1.373432 S    
N2    N16   1.405145 A    
C55   H29   1.083360 S    
N18   O4    1.301624 A    
C25   H35   1.081738 S    
C44   C47   1.367442 A    
C58   C69   1.471933 S    
C28   N18   1.439503 S    
C3    C19   1.402956 A    
H23   C85   1.102399 S    
N24   O21   1.300840 A    
C80   C82   1.532605 S    
C54   H28   1.080805 S    
C73   C77   1.408300 A    
C52   C72   1.391306 A    
C18   C77   1.457328 S    
C79   C81   1.545371 S    
C43   C48   1.381652 A    
N1    N15   1.405144 A    
C46   C48   1.410570 A    
C64   O18   1.378334 S    
C43   H21   1.085443 S    
N18   O3    1.300463 A    
C14   C20   1.382886 A    
C4    N4    1.324283 A    
C44   C46   1.392756 A    
N11   Ni1   1.896102 S    
C55   C57   1.402461 A    
C29   C49   1.410347 A    
C7    N7    1.317600 A    
N5    Ni3   1.892902 S    
C19   C68   1.452405 S    
C11   H5    1.075178 S    
N6    Ni4   1.892899 S    
C26   C73   1.384055 A    
C38   C40   1.393751 A    
C12   H6    1.070129 S    
N1    Ni1   1.860603 S    
C12   C24   1.370023 A    
C6    N6    1.334557 A    
O25   H49   0.990320 S    
C63   O17   1.376610 S    
O18   H46   0.988303 S    
C82   C84   1.536045 S    
C16   H10   1.079036 S    
C36   C47   1.482847 S    
C5    N5    1.334905 A    
O24   H48   0.987676 S    
C32   C34   1.407315 A    
C35   C48   1.475632 S    
C31   C33   1.402506 A    
C2    H2    1.077314 S    
C27   C29   1.415512 A    
C13   N13   1.319860 A    
N20   O8    1.301704 A    
C33   N21   1.439849 S    
N23   O20   1.296934 A    
C40   H20   1.078295 S    
C66   C69   1.390232 A    
C7    C23   1.378294 A    
C15   N15   1.343587 A    
O26   H50   0.986789 S    
C11   C23   1.378759 A    
C67   C69   1.416458 A    
C8    O26   1.373248 S    
N7    Ni4   1.887116 S    
C59   N23   1.432145 S    
N8    Ni3   1.887118 S    
C79   H39   1.105971 S    
H13   C51   1.078147 S    
C39   C41   1.399856 A    
C13   C19   1.383095 A    
C52   C76   1.389095 A    
N3    N13   1.405269 A    
C45   C47   1.417119 A    
C37   C39   1.394329 A    
C31   C41   1.402598 A    
C44   H22   1.085630 S    
C34   C36   1.417172 A    
C4    C20   1.382387 A    
N19   O5    1.299577 A    
H25   C75   1.083516 S    
C68   C70   1.411379 A    
C80   C86   1.550812 S    
C9    H3    1.078737 S    
