data_str_m12_o9_o22_f0_bcu.sym.37
_audit_creation_date              2012-12-11T17:45:27-0500
_audit_creation_method            fapswitch 2.2
_symmetry_space_group_name_H-M    P1
_symmetry_Int_Tables_number       1
_space_group_crystal_system       triclinic
_cell_length_a                    15.033518
_cell_length_b                    14.892107
_cell_length_c                    14.990879
_cell_angle_alpha                 109.941792
_cell_angle_beta                  109.060194
_cell_angle_gamma                 108.851041
_cell_volume                      2601.1024783

loop_
_atom_site_label
_atom_site_type_symbol
_atom_type_description
_atom_site_fract_x
_atom_site_fract_y
_atom_site_fract_z
_atom_type_partial_charge
C1    C     C_R   0.978406 0.258619 0.070787 -0.118799
C2    C     C_R   0.702739 0.198165 0.793168 -0.153689
C3    C     C_R   0.776486 0.591724 0.024243 -0.154572
C4    C     C_R   0.313592 0.756145 0.223705 -0.140956
C5    C     C_R   0.942745 0.409909 0.685195 -0.135737
C6    C     C_R   0.675117 0.499547 0.951136 0.006683
C7    C     C_R   0.961454 0.504023 0.677220 0.043063
C8    C     C_R   0.698963 0.137683 0.698559 0.056854
C9    C     C_R   0.040985 0.858516 0.049724 0.059303
C10   C     C_R   0.620791 0.233800 0.085012 -0.107857
C11   C     C_R   0.685529 0.326798 0.188694 -0.146194
C12   C     C_R   0.320959 0.783547 0.325091 0.043478
C13   C     C_R   0.743395 0.319751 0.278672 0.114725
C14   C     C_R   0.727123 0.216111 0.264470 -0.167022
C15   C     C_R   0.658660 0.122709 0.161266 -0.105834
C16   C     C_R   0.208741 0.407892 0.904127 -0.142534
C17   C     C_R   0.607420 0.132049 0.071344 -0.098677
C18   C     C_R   0.844467 0.425102 0.481345 -0.248462
C19   C     C_R   0.935988 0.512083 0.579435 0.067266
C20   C     C_R   0.006614 0.603799 0.581762 0.014454
C21   C     C_R   0.982206 0.606868 0.487053 -0.231675
C22   C     C_R   0.906223 0.511247 0.387335 0.055380
C23   C     C_R   0.301015 0.498394 0.934632 0.002417
C24   C     C_R   0.830465 0.420956 0.382956 0.029035
C25   C     C_R   0.150971 0.797415 0.723919 -0.196875
C26   C     C_R   0.256637 0.873067 0.808630 -0.125745
C27   C     C_R   0.330134 0.837217 0.841337 -0.091635
C28   C     C_R   0.990320 0.592511 0.295287 -0.149265
C29   C     C_R   0.299108 0.726212 0.788070 -0.123226
C30   C     C_R   0.193792 0.650221 0.703527 -0.118200
C31   C     C_R   0.118318 0.685080 0.672280 0.117107
C32   C     C_R   0.181539 0.004078 0.388685 -0.127951
C33   C     C_R   0.271888 0.990181 0.403192 -0.117618
C34   C     C_R   0.930380 0.503388 0.299180 0.063820
C35   C     C_R   0.317072 0.966607 0.484426 0.111307
C36   C     C_R   0.272274 0.959578 0.552333 -0.186758
C37   C     C_R   0.181749 0.973147 0.537267 -0.115732
C38   C     C_R   0.136306 0.995210 0.455439 -0.107233
C39   C     C_R   0.508015 0.035724 0.592951 -0.238765
C40   C     C_R   0.298937 0.590185 0.994922 -0.142796
C41   C     C_R   0.605330 0.036628 0.610940 0.061459
C42   C     C_R   0.609463 0.948886 0.540379 0.021020
C43   C     C_R   0.513128 0.863524 0.447172 -0.248374
C44   C     C_R   0.416463 0.866242 0.427074 0.073829
C45   C     C_R   0.687489 0.408087 0.933391 -0.124881
C46   C     C_R   0.413581 0.952758 0.501549 0.017810
C47   C     C_R   0.740813 0.918690 0.481599 -0.176470
C48   C     C_R   0.837014 0.914893 0.503527 -0.113387
C49   C     C_R   0.904268 0.935847 0.606574 -0.093464
C50   C     C_R   0.875325 0.960270 0.687845 -0.119321
C51   C     C_R   0.779090 0.963802 0.666226 -0.137869
C52   C     C_R   0.907024 0.411065 0.210593 -0.147372
C53   C     C_R   0.711223 0.943904 0.563049 0.122233
C54   C     C_3   0.477648 0.379692 0.873811 -0.400518
C55   C     C_3   0.374221 0.379901 0.865413 -0.413721
C56   C     C_R   0.026258 0.593241 0.780506 -0.112327
C57   C     C_3   0.589543 0.556687 0.053878 -0.432847
C58   C     C_3   0.543483 0.563423 0.880067 -0.111780
C59   C     C_3   0.572857 0.498906 0.936966 0.333351
C60   C     C_3   0.397202 0.498533 0.929723 0.393326
C61   C     C_3   0.486185 0.553388 0.049303 -0.391059
C62   C     C_3   0.438044 0.563294 0.876082 -0.470978
C63   C     C_R   0.374052 0.218671 0.001580 -0.120702
C64   C     C_R   0.218660 0.746036 0.312458 -0.109211
C65   C     C_R   0.277926 0.160242 0.996905 -0.188241
C66   C     C_R   0.257530 0.206544 0.081341 0.127281
C67   C     C_R   0.790016 0.198137 0.697972 -0.124130
C68   C     C_R   0.332304 0.313435 0.168368 -0.133492
C69   C     C_R   0.428515 0.371733 0.172694 -0.133780
C70   C     C_R   0.449297 0.323857 0.089748 -0.070032
C71   C     C_R   0.151262 0.037649 0.075157 -0.241305
C72   C     C_R   0.066326 0.971930 0.082478 0.054526
C73   C     C_R   0.009912 0.018343 0.123662 0.003423
C74   C     C_R   0.037899 0.125752 0.150886 -0.227291
C75   C     C_R   0.097403 0.175850 0.110435 0.045743
C76   C     C_R   0.071097 0.256061 0.980722 -0.133497
C77   C     C_R   0.165556 0.138727 0.086067 0.023972
C78   C     C_R   0.990807 0.797968 0.087195 -0.140668
C79   C     C_R   0.811054 0.898715 0.016567 -0.135066
C80   C     C_R   0.711004 0.857766 0.012005 -0.150480
C81   C     C_R   0.705454 0.869164 0.106241 -0.124929
C82   C     C_R   0.800201 0.925384 0.206056 -0.112257
C83   C     C_R   0.900468 0.970768 0.211722 -0.186308
C84   C     C_R   0.906581 0.955632 0.116575 0.122767
C85   C     C_R   0.057767 0.235174 0.061374 0.055261
C86   C     C_R   0.542218 0.527736 0.771065 0.156140
C87   C     C_R   0.634463 0.587333 0.767996 -0.174872
C88   C     C_R   0.637324 0.555495 0.670257 -0.088927
C89   C     C_R   0.081442 0.800546 0.995750 -0.153012
C90   C     C_R   0.548248 0.463925 0.574152 -0.088594
C91   C     C_R   0.456171 0.404021 0.575667 -0.121150
C92   C     C_R   0.452914 0.435441 0.673242 -0.145302
H1    H     H_    0.945756 0.251787 0.123379 0.096596
H2    H     H_    0.583219 0.241054 0.014724 0.088897
H3    H     H_    0.697938 0.405797 0.197513 0.102258
H4    H     H_    0.378719 0.776156 0.205235 0.097264
H5    H     H_    0.771355 0.207979 0.331790 0.109357
H6    H     H_    0.648277 0.043687 0.150420 0.116860
H7    H     H_    0.788548 0.357147 0.481002 0.128490
H8    H     H_    0.039532 0.677485 0.492212 0.127855
H9    H     H_    0.094413 0.825900 0.699376 0.109352
H10   H     H_    0.281751 0.959394 0.848855 0.106278
H11   H     H_    0.411290 0.895155 0.907614 0.093921
H12   H     H_    0.051894 0.677856 0.804241 0.115263
H13   H     H_    0.356844 0.699224 0.812024 0.101680
H14   H     H_    0.170709 0.564250 0.662829 0.108379
H15   H     H_    0.066370 0.005860 0.444345 0.094583
H16   H     H_    0.178344 0.323105 0.847202 0.091248
H17   H     H_    0.146903 0.021929 0.325839 0.114562
H18   H     H_    0.306303 0.997194 0.351090 0.114270
H19   H     H_    0.306839 0.942461 0.616007 0.123569
H20   H     H_    0.146935 0.966681 0.589121 0.101058
H21   H     H_    0.506004 0.104916 0.646600 0.132328
H22   H     H_    0.513031 0.795108 0.389927 0.128983
H23   H     H_    0.816177 0.170809 0.639697 0.102407
H24   H     H_    0.690183 0.903305 0.401623 0.102740
H25   H     H_    0.859594 0.895936 0.440684 0.099841
H26   H     H_    0.978702 0.932972 0.623393 0.089167
H27   H     H_    0.927373 0.976290 0.767601 0.111738
H28   H     H_    0.008900 0.676254 0.341014 0.098447
H29   H     H_    0.757477 0.981912 0.729904 0.112565
H30   H     H_    0.495089 0.335239 0.917493 0.146653
H31   H     H_    0.465809 0.333025 0.791352 0.159408
H32   H     H_    0.312831 0.340736 0.778557 0.147870
H33   H     H_    0.341282 0.329396 0.898392 0.171539
H34   H     H_    0.970632 0.825914 0.150313 0.109007
H35   H     H_    0.618063 0.519321 0.101526 0.158888
H36   H     H_    0.459005 0.508784 0.089402 0.173410
H37   H     H_    0.608750 0.649316 0.935185 0.112999
H38   H     H_    0.373411 0.528068 0.791777 0.155243
H39   H     H_    0.353987 0.674441 0.023936 0.086227
H40   H     H_    0.456529 0.649324 0.922015 0.137156
H41   H     H_    0.653300 0.644146 0.100020 0.159695
H42   H     H_    0.503840 0.638887 0.097150 0.144059
H43   H     H_    0.523531 0.368573 0.093408 0.094767
H44   H     H_    0.390073 0.182284 0.936900 0.096440
H45   H     H_    0.138806 0.830847 0.970581 0.100609
H46   H     H_    0.220191 0.078258 0.928843 0.103760
H47   H     H_    0.318147 0.349661 0.234768 0.109718
H48   H     H_    0.487431 0.453416 0.240704 0.108589
H49   H     H_    0.204735 0.009651 0.057612 0.129615
H50   H     H_    0.994808 0.159439 0.183755 0.128461
H51   H     H_    0.856807 0.326684 0.184012 0.121938
H52   H     H_    0.814198 0.890641 0.943199 0.109064
H53   H     H_    0.637613 0.816960 0.935206 0.112226
H54   H     H_    0.627766 0.835883 0.102144 0.094266
H55   H     H_    0.795868 0.936428 0.279413 0.100593
H56   H     H_    0.650393 0.170236 0.824341 0.093108
H57   H     H_    0.973048 0.019625 0.290129 0.103749
H58   H     H_    0.195739 0.753048 0.374649 0.115035
H59   H     H_    0.124793 0.244819 0.950335 0.112044
H60   H     H_    0.626450 0.322972 0.883325 0.087845
H61   H     H_    0.705040 0.657934 0.841665 0.113683
H62   H     H_    0.708883 0.601708 0.669165 0.113383
H63   H     H_    0.550603 0.439306 0.498526 0.107462
H64   H     H_    0.387159 0.332954 0.501094 0.115082
H65   H     H_    0.380438 0.387260 0.671422 0.110309
H66   H     H_    0.795000 0.676287 0.058703 0.110057
H67   H     H_    0.895984 0.325831 0.619741 0.095857
H68   H     H_    0.559056 0.061089 0.990709 0.093078
N1    N     N_R   0.947080 0.293830 0.002870 -0.042998
N2    N     N_R   0.153670 0.443180 0.946090 -0.035472
N3    N     N_R   0.002360 0.556820 0.208890 -0.039764
N4    N     N_R   0.210070 0.556820 0.002870 -0.032804
N5    N     N_R   0.945960 0.443180 0.152110 -0.041402
N6    N     N_R   0.151710 0.706170 0.208890 -0.042944
N7    N     N_R   0.004320 0.293830 0.946090 -0.042778
N8    N     N_R   0.789930 0.443180 0.997130 -0.036690
N9    N     N_R   0.054040 0.556820 0.847890 -0.041053
N10   N     N_R   0.848290 0.293830 0.791110 -0.039520
N11   N     N_R   0.995680 0.706170 0.053910 -0.037978
N12   N     N_R   0.052920 0.706170 0.997130 -0.039347
N13   N     N_R   0.791050 0.293830 0.847890 -0.035450
N14   N     N_R   0.846330 0.556820 0.053910 -0.035735
N15   N     N_R   0.997640 0.443180 0.791110 -0.040701
N16   N     N_R   0.208950 0.706170 0.152110 -0.040530
Ni1   Ni    Ni4+2 0.869690 0.369690 0.000000 0.211881
Ni2   Ni    Ni4+2 0.130310 0.630310 0.000000 0.216124
Ni3   Ni    Ni4+2 0.000970 0.369690 0.869780 0.213983
Ni4   Ni    Ni4+2 0.999030 0.630310 0.130220 0.214713

loop_
_geom_bond_atom_site_label_1
_geom_bond_atom_site_label_2
_ccdc_geom_bond_type
C25   C31   A    
C66   C68   A    
C87   C88   A    
C63   C65   A    
C58   C62   S    
C6    C45   A    
C56   N9    A    
C27   C29   A    
N5    Ni1   S    
C41   C42   A    
C62   H38   S    
N7    Ni3   S    
C35   C36   A    
C9    C72   S    
N11   N12   A    
C3    C6    A    
C57   H41   S    
C82   H55   S    
C39   C41   A    
N8    N14   A    
C26   C27   A    
C29   C30   A    
C83   C84   A    
C18   C24   A    
C36   C37   A    
N3    N5    A    
C40   N4    A    
C43   H22   S    
C79   C84   A    
C12   C64   A    
C57   C59   S    
C10   H2    S    
C10   C17   A    
C2    H56   S    
C23   C40   A    
C2    N13   A    
C76   N7    A    
C60   C62   S    
C18   C19   A    
C73   C74   A    
C38   H15   S    
C17   H68   S    
C67   H23   S    
C37   H20   S    
C64   N6    A    
C34   C52   A    
C13   C14   A    
C4    H4    S    
C75   C85   S    
C55   H33   S    
C68   C69   A    
C5    H67   S    
C3    H66   S    
C87   H61   S    
C32   C38   A    
C4    C12   A    
C73   C84   S    
C47   C53   A    
C69   H48   S    
N16   Ni2   S    
C54   H30   S    
C1    N1    A    
C55   C60   S    
C30   H14   S    
C5    N15   A    
C29   H13   S    
C47   H24   S    
C7    C56   A    
C58   C86   S    
C44   C46   A    
C61   H42   S    
C81   C82   A    
N2    N4    A    
C54   C59   S    
C67   N10   A    
C1    C85   A    
C23   C60   S    
C22   C34   S    
C52   H51   S    
C74   C75   A    
C4    N16   A    
C50   H27   S    
C62   H40   S    
C8    C41   S    
C56   H12   S    
C32   H17   S    
C9    C89   A    
C91   C92   A    
C5    C7    A    
C21   H8    S    
C86   C87   A    
C72   C73   A    
N15   Ni3   S    
C76   H59   S    
C39   H21   S    
C25   C26   A    
C82   C83   A    
C13   C24   S    
C64   H58   S    
C92   H65   S    
C51   C53   A    
C88   H62   S    
C43   C44   A    
C37   C38   A    
C52   N5    A    
C3    N14   A    
C47   C48   A    
C63   C70   A    
N13   Ni1   S    
C36   H19   S    
C50   C51   A    
N9    N15   A    
C75   C77   A    
N2    Ni3   S    
N1    N7    A    
C39   C46   A    
C65   H46   S    
C1    H1    S    
C48   C49   A    
C40   H39   S    
C88   C90   A    
C49   C50   A    
C16   C23   A    
C89   H45   S    
C28   H28   S    
C70   H43   S    
C51   H29   S    
C22   C24   A    
N11   Ni4   S    
C54   H31   S    
N6    Ni4   S    
C42   C43   A    
C15   H6    S    
N1    Ni1   S    
C78   H34   S    
N14   Ni4   S    
N9    Ni2   S    
C71   C77   A    
N4    Ni2   S    
C14   H5    S    
N12   Ni2   S    
C15   C17   A    
C66   C77   S    
C54   C55   S    
C80   H53   S    
N6    N16   A    
C6    C59   S    
C2    C8    A    
C89   N12   A    
C80   C81   A    
C18   H7    S    
C57   H35   S    
C57   C61   S    
C48   H25   S    
C7    C19   S    
C79   H52   S    
C71   H49   S    
N10   Ni3   S    
C45   H60   S    
C16   N2    A    
C63   H44   S    
C19   C20   A    
C58   C59   S    
C91   H64   S    
C42   C53   S    
C86   C92   A    
C32   C33   A    
C11   C13   A    
C25   H9    S    
C90   C91   A    
C30   C31   A    
C27   H11   S    
C78   N11   A    
C33   C35   A    
C61   H36   S    
C9    C78   A    
C65   C66   A    
C74   H50   S    
C69   C70   A    
C45   N8    A    
C10   C11   A    
C16   H16   S    
C28   C34   A    
C79   C80   A    
C49   H26   S    
C71   C72   A    
C11   H3    S    
C20   C21   A    
C8    C67   A    
C12   C44   S    
C81   H54   S    
C55   H32   S    
N3    Ni4   S    
C14   C15   A    
C60   C61   S    
C68   H47   S    
C33   H18   S    
C58   H37   S    
C90   H63   S    
C21   C22   A    
C35   C46   S    
C76   C85   A    
C20   C31   S    
C26   H10   S    
N8    Ni1   S    
C28   N3    A    
C83   H57   S    
N10   N13   A    
