data_str_m4_o15_o24_f0_acs.sym.14
_audit_creation_date              2012-12-11T14:28:18-0500
_audit_creation_method            fapswitch 2.2
_symmetry_space_group_name_H-M    P1
_symmetry_Int_Tables_number       1
_space_group_crystal_system       triclinic
_cell_length_a                    10.939878
_cell_length_b                    19.047701
_cell_length_c                    18.649962
_cell_angle_alpha                 89.859507
_cell_angle_beta                  89.530446
_cell_angle_gamma                 89.908188
_cell_volume                      3886.12317204

loop_
_atom_site_label
_atom_site_type_symbol
_atom_type_description
_atom_site_fract_x
_atom_site_fract_y
_atom_site_fract_z
_atom_type_partial_charge
C1    C     C_R   0.321548 0.970926 0.647327 0.526960
C2    C     C_3   0.185546 0.710272 0.030422 -0.107734
C3    C     C_3   0.038128 0.191310 0.975344 -0.117992
C4    C     C_3   0.555402 0.313902 0.471129 -0.116941
C5    C     C_3   0.594581 0.313517 0.033210 -0.133489
C6    C     C_3   0.513078 0.706543 0.517572 -0.110381
C7    C     C_3   0.538131 0.691308 0.975343 -0.118183
C8    C     C_3   0.199663 0.806277 0.497279 -0.136199
C9    C     C_3   0.200964 0.780348 0.989551 -0.120569
C10   C     C_3   0.191020 0.287721 0.484224 -0.101584
C11   C     C_3   0.172482 0.183315 0.999420 -0.151337
C12   C     C_3   0.687572 0.306172 0.499191 -0.135819
C13   C     C_3   0.075347 0.318297 0.519364 -0.107870
C14   C     C_3   0.700966 0.280349 0.989551 -0.120666
C15   C     C_3   0.638638 0.678590 0.491260 -0.129366
C16   C     C_3   0.672484 0.683312 0.999419 -0.151668
C17   C     C_3   0.146879 0.764278 0.560684 0.057304
C18   C     C_3   0.107363 0.754539 0.934202 0.044147
C19   C     C_3   0.106886 0.248106 0.432554 0.056394
C20   C     C_3   0.147308 0.235686 0.060365 0.047099
C21   C     C_3   0.637714 0.262235 0.561851 0.059984
C22   C     C_3   0.607365 0.254539 0.934203 0.044220
C23   C     C_3   0.644281 0.738692 0.437744 0.055017
C24   C     C_3   0.210882 0.245148 0.950662 -0.137698
C25   C     C_3   0.647313 0.735684 0.060363 0.045738
C26   C     C_3   0.016332 0.774747 0.533852 -0.118678
C27   C     C_3   0.002203 0.788104 0.976354 -0.139916
C28   C     C_3   0.104386 0.184616 0.482530 -0.115853
C29   C     C_3   0.013914 0.243657 0.037308 -0.125053
C30   C     C_3   0.506404 0.270317 0.535227 -0.118784
C31   C     C_3   0.502204 0.288105 0.976355 -0.139782
C32   C     C_3   0.520424 0.766869 0.462434 -0.119406
C33   C     C_3   0.513920 0.743657 0.037306 -0.124684
C34   C     C_3   0.028398 0.705596 0.491442 -0.109138
C35   C     C_3   0.704263 0.237449 0.455889 -0.140772
C36   C     C_3   0.987549 0.718113 0.016955 -0.101288
C37   C     C_3   0.988302 0.215420 0.518239 -0.114278
C38   C     C_3   0.053043 0.305308 0.988823 -0.105653
C39   C     C_3   0.523230 0.202026 0.491691 -0.107015
C40   C     C_3   0.487552 0.218113 0.016956 -0.100991
C41   C     C_3   0.587246 0.812815 0.517043 -0.106898
C42   C     C_3   0.553051 0.805307 0.988820 -0.105454
C43   C     C_3   0.159271 0.695070 0.519027 -0.100641
C44   C     C_3   0.093283 0.685003 0.974186 -0.107034
C45   C     C_3   0.992878 0.279103 0.466736 -0.151889
C46   C     C_3   0.685549 0.210273 0.030422 -0.107831
C47   C     C_3   0.186776 0.297392 0.012444 -0.097129
C48   C     C_3   0.654520 0.193853 0.519363 -0.104833
C49   C     C_3   0.593286 0.185004 0.974186 -0.106987
C50   C     C_3   0.712292 0.785260 0.491031 -0.115802
C51   C     C_3   0.686784 0.797389 0.012442 -0.097312
C52   C     C_3   0.706271 0.724836 0.546294 -0.149576
C53   C     C_3   0.710888 0.745144 0.950661 -0.137524
C54   C     C_3   0.081111 0.747475 0.427927 0.053457
C55   C     C_3   0.079827 0.744080 0.072319 0.061281
C56   C     C_3   0.071989 0.254807 0.570110 0.055135
C57   C     C_R   0.318093 0.961483 0.856905 0.542840
C58   C     C_3   0.078394 0.252819 0.928136 0.058683
C59   C     C_3   0.574098 0.245848 0.429086 0.055281
C60   C     C_3   0.579829 0.244081 0.072319 0.061484
C61   C     C_3   0.581722 0.752339 0.571556 0.052105
C62   C     C_3   0.578399 0.752816 0.928134 0.058616
C63   C     C_R   0.322556 0.999888 0.427551 -0.044445
C64   C     C_R   0.316880 0.006438 0.075112 -0.022878
C65   C     C_R   0.332954 0.008866 0.578185 -0.045577
C66   C     C_R   0.318868 0.978400 0.931331 -0.023990
C67   C     C_R   0.823021 0.496451 0.425752 -0.048427
C68   C     C_R   0.319136 0.030841 0.354420 0.529513
C69   C     C_R   0.816876 0.506430 0.075117 -0.023316
C70   C     C_R   0.831016 0.505984 0.576483 -0.044878
C71   C     C_R   0.818867 0.478393 0.931335 -0.024067
C72   C     C_R   0.543100 0.976245 0.423807 -0.079279
C73   C     C_R   0.538119 0.976082 0.078510 -0.074113
C74   C     C_R   0.558653 0.006238 0.569760 -0.091962
C75   C     C_R   0.544184 0.001749 0.932086 -0.093521
C76   C     C_R   0.043800 0.475672 0.423035 -0.077332
C77   C     C_R   0.038112 0.476070 0.078520 -0.074365
C78   C     C_R   0.056771 0.507696 0.568734 -0.097265
C79   C     C_R   0.318273 0.033934 0.145827 0.533342
C80   C     C_R   0.044184 0.501741 0.932095 -0.093503
C81   C     C_R   0.655644 0.974497 0.457582 -0.128905
C82   C     C_R   0.649803 0.980101 0.042704 -0.126275
C83   C     C_R   0.664122 0.991534 0.529991 -0.147035
C84   C     C_R   0.652543 0.997618 0.970251 -0.140320
C85   C     C_R   0.155780 0.475202 0.457304 -0.128354
C86   C     C_R   0.149797 0.480094 0.042717 -0.126097
C87   C     C_R   0.163047 0.493512 0.529461 -0.148221
C88   C     C_R   0.152541 0.497613 0.970263 -0.140280
C89   C     C_R   0.442504 0.003259 0.537490 -0.006668
C90   C     C_R   0.821299 0.470452 0.646910 0.526670
C91   C     C_R   0.430454 0.990658 0.966888 -0.021497
C92   C     C_R   0.436037 0.993791 0.462325 -0.006157
C93   C     C_R   0.428154 0.989060 0.041339 -0.014185
C94   C     C_R   0.941163 0.502281 0.536216 -0.007681
C95   C     C_R   0.930453 0.490648 0.966895 -0.021433
C96   C     C_R   0.935956 0.492099 0.461097 -0.002613
C97   C     C_R   0.928150 0.489049 0.041345 -0.014190
C98   C     C_R   0.222523 0.021316 0.542556 0.006773
C99   C     C_R   0.205952 0.975120 0.970537 -0.000430
C100  C     C_R   0.213838 0.003441 0.469917 0.003143
C101  C     C_R   0.818093 0.461479 0.856908 0.543162
C102  C     C_R   0.203689 0.006542 0.036175 -0.004851
C103  C     C_R   0.719995 0.514498 0.540247 0.004064
C104  C     C_R   0.705951 0.475114 0.970540 -0.000447
C105  C     C_R   0.713662 0.496762 0.467439 -0.004544
C106  C     C_R   0.703686 0.506535 0.036179 -0.004930
C107  C     C_R   0.117251 0.045055 0.579883 -0.071656
C108  C     C_R   0.093112 0.946593 0.946187 -0.079882
C109  C     C_R   0.095553 0.993491 0.441534 -0.094328
C110  C     C_R   0.088422 0.037493 0.057320 -0.083538
C111  C     C_R   0.613222 0.538158 0.576252 -0.069750
C112  C     C_R   0.819268 0.530069 0.353808 0.521146
C113  C     C_R   0.593110 0.446590 0.946187 -0.079853
C114  C     C_R   0.596598 0.487502 0.437395 -0.086727
C115  C     C_R   0.588419 0.537487 0.057323 -0.083486
C116  C     C_R   0.002518 0.040233 0.549043 -0.125014
C117  C     C_R   0.981594 0.966943 0.974488 -0.146768
C118  C     C_R   0.991679 0.012830 0.480458 -0.146528
C119  C     C_R   0.979281 0.017471 0.026722 -0.150457
C120  C     C_R   0.500315 0.535320 0.543245 -0.125097
C121  C     C_R   0.481592 0.466939 0.974488 -0.146770
C122  C     C_R   0.491959 0.508954 0.474193 -0.135915
C123  C     C_R   0.818272 0.533931 0.145829 0.533068
C124  C     C_R   0.479278 0.517466 0.026724 -0.150443
C125  C     C_R   0.182625 0.771110 0.635875 0.564247
C126  C     C_R   0.135684 0.758569 0.857769 0.542098
C127  C     C_R   0.135066 0.242071 0.356956 0.550461
C128  C     C_R   0.182958 0.228881 0.135843 0.553346
C129  C     C_R   0.678502 0.270066 0.635655 0.563303
C130  C     C_R   0.635684 0.258570 0.857770 0.541749
C131  C     C_R   0.682073 0.729234 0.363665 0.561977
C132  C     C_R   0.682961 0.728880 0.135843 0.555896
C133  C     C_R   0.543021 0.769416 0.644542 0.539816
C134  C     C_3   0.211338 0.736696 0.454731 -0.136526
C135  C     C_R   0.540166 0.770243 0.856077 0.549247
C136  C     C_R   0.539973 0.229660 0.356129 0.549340
C137  C     C_R   0.546566 0.231428 0.146349 0.535810
C138  C     C_R   0.043483 0.269074 0.644904 0.538664
C139  C     C_R   0.040163 0.270244 0.856078 0.548812
C140  C     C_R   0.042178 0.730355 0.355514 0.541976
C141  C     C_R   0.046565 0.731428 0.146349 0.538181
C142  C     C_3   0.067738 0.816431 0.469113 -0.117563
C143  C     C_3   0.094580 0.813517 0.033209 -0.133327
C144  C     C_3   0.187224 0.224224 0.535672 -0.146941
Cr1   Cr    Cr6+3 0.488160 0.884660 0.750000 0.995431
Cr2   Cr    Cr6+3 0.333410 0.272740 0.250000 1.000708
Cr3   Cr    Cr6+3 0.833410 0.227260 0.750000 1.002030
Cr4   Cr    Cr6+3 0.833410 0.772740 0.250000 0.997445
Cr5   Cr    Cr6+3 0.488160 0.115340 0.250000 1.004885
Cr6   Cr    Cr6+3 0.988160 0.384660 0.750000 0.995774
Cr7   Cr    Cr6+3 0.988160 0.615340 0.250000 0.999870
Cr8   Cr    Cr6+3 0.173480 0.883120 0.750000 1.003380
Cr9   Cr    Cr6+3 0.173480 0.116880 0.250000 0.994819
Cr10  Cr    Cr6+3 0.673480 0.383120 0.750000 1.003815
Cr11  Cr    Cr6+3 0.673480 0.616880 0.250000 0.995053
Cr12  Cr    Cr6+3 0.333410 0.727260 0.750000 1.002225
H1    H     H_    0.023749 0.863368 0.445979 0.115717
H2    H     H_    0.929761 0.820441 0.951727 0.100167
H3    H     H_    0.119786 0.132188 0.459954 0.164105
H4    H     H_    0.935479 0.244273 0.075294 0.115420
H5    H     H_    0.427865 0.284809 0.570160 0.121330
H6    H     H_    0.429761 0.320440 0.951728 0.100119
H7    H     H_    0.450913 0.787542 0.425046 0.112620
H8    H     H_    0.435482 0.744274 0.075290 0.116876
H9    H     H_    0.957370 0.664203 0.487453 0.117784
H10   H     H_    0.903851 0.690086 0.033308 0.106668
H11   H     H_    0.907552 0.184338 0.534881 0.123769
H12   H     H_    0.096273 0.863842 0.062904 0.137986
H13   H     H_    0.001598 0.354835 0.982284 0.132467
H14   H     H_    0.454955 0.159275 0.486594 0.122516
H15   H     H_    0.403852 0.190085 0.033307 0.106653
H16   H     H_    0.559087 0.866559 0.531038 0.155944
H17   H     H_    0.501610 0.854835 0.982281 0.132578
H18   H     H_    0.197656 0.645256 0.540122 0.129968
H19   H     H_    0.091572 0.634061 0.946531 0.128474
H20   H     H_    0.921809 0.305762 0.434684 0.100481
H21   H     H_    0.248333 0.340617 0.028759 0.127666
H22   H     H_    0.694962 0.144387 0.539979 0.128166
H23   H     H_    0.263827 0.200101 0.565598 0.101223
H24   H     H_    0.591577 0.134063 0.946531 0.128392
H25   H     H_    0.791241 0.819121 0.476839 0.119776
H26   H     H_    0.748342 0.840613 0.028756 0.127615
H27   H     H_    0.286260 0.718196 0.419190 0.121198
H28   H     H_    0.258791 0.677481 0.054124 0.111629
H29   H     H_    0.057603 0.371746 0.538465 0.164114
H30   H     H_    0.286941 0.243503 0.911063 0.111644
H31   H     H_    0.779587 0.220882 0.419574 0.120624
H32   H     H_    0.758793 0.177482 0.054124 0.111292
H33   H     H_    0.779347 0.705881 0.582446 0.106782
H34   H     H_    0.976058 0.148841 0.957731 0.133610
H35   H     H_    0.786946 0.743497 0.911061 0.111824
H36   H     H_    0.734930 0.957685 0.427390 0.107494
H37   H     H_    0.733312 0.971839 0.072020 0.109225
H38   H     H_    0.751458 0.990043 0.556363 0.110778
H39   H     H_    0.737407 0.008562 0.942881 0.107973
H40   H     H_    0.235261 0.457977 0.427715 0.104521
H41   H     H_    0.233306 0.471835 0.072035 0.109116
H42   H     H_    0.249784 0.492477 0.556298 0.110809
H43   H     H_    0.237405 0.508561 0.942897 0.107975
H44   H     H_    0.539754 0.960795 0.368046 0.131461
H45   H     H_    0.508656 0.360322 0.448629 0.116872
H46   H     H_    0.538752 0.963397 0.135059 0.136186
H47   H     H_    0.568719 0.019820 0.625691 0.135853
H48   H     H_    0.551479 0.017219 0.876505 0.137706
H49   H     H_    0.041318 0.459809 0.367356 0.126852
H50   H     H_    0.038739 0.463385 0.135068 0.134862
H51   H     H_    0.065685 0.521781 0.624605 0.136362
H52   H     H_    0.051482 0.517211 0.876514 0.137842
H53   H     H_    0.082052 0.970805 0.389079 0.136446
H54   H     H_    0.077817 0.080774 0.093597 0.178723
H55   H     H_    0.123826 0.066165 0.633620 0.128279
H56   H     H_    0.596274 0.363842 0.062906 0.137683
H57   H     H_    0.087272 0.905919 0.907650 0.185358
H58   H     H_    0.585208 0.465220 0.384540 0.135579
H59   H     H_    0.577813 0.580768 0.093599 0.178685
H60   H     H_    0.617673 0.560314 0.629632 0.131847
H61   H     H_    0.587269 0.405918 0.907648 0.185316
H62   H     H_    0.270621 0.847625 0.501614 0.112137
H63   H     H_    0.288041 0.806964 0.975578 0.108590
H64   H     H_    0.272823 0.318783 0.468672 0.127901
H65   H     H_    0.228935 0.135493 0.001448 0.112027
H66   H     H_    0.754589 0.349381 0.505109 0.115347
H67   H     H_    0.430440 0.675238 0.530218 0.119589
H68   H     H_    0.788042 0.306965 0.975578 0.108563
H69   H     H_    0.664443 0.627086 0.470372 0.147826
H70   H     H_    0.728933 0.635489 0.001448 0.112174
H71   H     H_    0.922738 0.058154 0.578342 0.102763
H72   H     H_    0.898730 0.944335 0.954051 0.101412
H73   H     H_    0.903662 0.009592 0.455847 0.106245
H74   H     H_    0.894348 0.040971 0.044361 0.103279
H75   H     H_    0.420397 0.554894 0.571126 0.098357
H76   H     H_    0.398728 0.444333 0.954049 0.101396
H77   H     H_    0.405598 0.508116 0.447578 0.105507
H78   H     H_    0.476059 0.648841 0.957731 0.133666
H79   H     H_    0.394345 0.540966 0.044362 0.103445
H80   H     H_    0.939873 0.791610 0.569199 0.124582
O1    O     O_R   0.575450 0.828820 0.667950 -0.519311
O2    O     O_R   0.416860 0.942890 0.825320 -0.515652
O3    O     O_R   0.416860 0.057110 0.325320 -0.500008
O4    O     O_R   0.416860 0.057110 0.174680 -0.509551
O5    O     O_R   0.916860 0.442890 0.674680 -0.510057
O6    O     O_R   0.916860 0.442890 0.825320 -0.515442
O7    O     O_R   0.916860 0.557110 0.325320 -0.501087
O8    O     O_R   0.916860 0.557110 0.174680 -0.508301
O9    O     O_R   0.213790 0.953680 0.668330 -0.515663
O10   O     O_R   0.213790 0.953680 0.831670 -0.538551
O11   O     O_R   0.213790 0.046320 0.331670 -0.527459
O12   O     O_R   0.575450 0.828820 0.832050 -0.520046
O13   O     O_R   0.213790 0.046320 0.168330 -0.548451
O14   O     O_R   0.713790 0.453680 0.668330 -0.517687
O15   O     O_R   0.713790 0.453680 0.831670 -0.538273
O16   O     O_R   0.713790 0.546320 0.331670 -0.531073
O17   O     O_R   0.713790 0.546320 0.168330 -0.548544
O18   O     O_R   0.121360 0.817890 0.672660 -0.497444
O19   O     O_R   0.121360 0.817890 0.827340 -0.530818
O20   O     O_R   0.121360 0.182110 0.327340 -0.503164
O21   O     O_R   0.121360 0.182110 0.172660 -0.524329
O22   O     O_R   0.621360 0.317890 0.672660 -0.496831
O23   O     O_R   0.575450 0.171180 0.332050 -0.515432
O24   O     O_R   0.621360 0.317890 0.827340 -0.531015
O25   O     O_R   0.621360 0.682110 0.327340 -0.494995
O26   O     O_R   0.621360 0.682110 0.172660 -0.518537
O27   O     O_R   0.206850 0.711370 0.665820 -0.534400
O28   O     O_R   0.206850 0.711370 0.834180 -0.520059
O29   O     O_R   0.206850 0.288630 0.334180 -0.530336
O30   O     O_R   0.206850 0.288630 0.165820 -0.522079
O31   O     O_R   0.706850 0.211370 0.665820 -0.535735
O32   O     O_R   0.706850 0.211370 0.834180 -0.520149
O33   O     O_R   0.706850 0.788630 0.334180 -0.525018
O34   O     O_R   0.575450 0.171180 0.167950 -0.519220
O35   O     O_R   0.706850 0.788630 0.165820 -0.516935
O36   O     O_R   0.457710 0.733190 0.672630 -0.527399
O37   O     O_R   0.457710 0.733190 0.827370 -0.509302
O38   O     O_R   0.457710 0.266810 0.327370 -0.516936
O39   O     O_R   0.457710 0.266810 0.172630 -0.522038
O40   O     O_R   0.957710 0.233190 0.672630 -0.526242
O41   O     O_R   0.957710 0.233190 0.827370 -0.509636
O42   O     O_R   0.957710 0.766810 0.327370 -0.530252
O43   O     O_R   0.957710 0.766810 0.172630 -0.521499
O44   O     O_3   0.331690 0.831680 0.750000 -0.272317
O45   O     O_R   0.075450 0.328820 0.667950 -0.522330
O46   O     O_3   0.331690 0.168320 0.250000 -0.269416
O47   O     O_3   0.831690 0.331680 0.750000 -0.269719
O48   O     O_3   0.831690 0.668320 0.250000 -0.287578
O49   O     O_R   0.075450 0.328820 0.832050 -0.520128
O50   O     O_R   0.075450 0.671180 0.332050 -0.512131
O51   O     O_R   0.075450 0.671180 0.167950 -0.517380
O52   O     O_R   0.416860 0.942890 0.674680 -0.510541

loop_
_geom_bond_atom_site_label_1
_geom_bond_atom_site_label_2
_ccdc_geom_bond_type
C6    C32   S    
C71   C104  A    
C73   C82   A    
C44   H19   S    
C73   C93   A    
C74   C83   A    
Cr9   O21   S    
C9    C143  S    
C61   C133  S    
C27   H2    S    
C65   C89   A    
C90   O14   A    
C16   H70   S    
C2    C55   S    
C117  C119  A    
C86   C88   A    
C71   C95   A    
C74   H47   S    
C69   C123  S    
C84   H39   S    
C54   C134  S    
C32   H7    S    
C78   H51   S    
C37   C56   S    
C50   C52   S    
C28   C144  S    
Cr6   O49   S    
C41   C61   S    
C4    C12   S    
C108  H57   S    
C21   C48   S    
C100  C109  A    
C121  H76   S    
C22   C130  S    
C7    C33   S    
C109  H53   S    
Cr3   O41   S    
C109  C118  A    
C11   C20   S    
C13   H29   S    
C140  O42   A    
C141  O43   A    
C14   C46   S    
C70   C103  A    
C67   C105  A    
C137  O39   A    
C17   C43   S    
C7    C62   S    
C18   C44   S    
C137  O34   A    
C115  H59   S    
C94   C96   A    
Cr8   O9    S    
C22   C49   S    
C34   C54   S    
C82   C84   A    
C64   C79   S    
C36   C44   S    
C37   C45   S    
Cr10  O24   S    
C38   H13   S    
C21   C30   S    
C26   H80   S    
C16   C25   S    
C5    H56   S    
C127  O29   A    
C46   C60   S    
C139  O41   A    
Cr2   O38   S    
Cr7   O51   S    
C130  O24   A    
C95   C97   A    
C8    C17   S    
Cr4   O43   S    
C106  C115  A    
C52   C61   S    
C80   C88   A    
C36   C55   S    
C1    O9    A    
C76   C96   A    
C13   C45   S    
C4    H45   S    
C78   C94   A    
C138  O45   A    
Cr5   O3    S    
C116  C118  A    
C52   H33   S    
C20   C47   S    
C3    C11   S    
Cr7   O7    S    
Cr11  O25   S    
C67   C112  S    
C87   H42   S    
C51   C53   S    
C76   C85   A    
C40   H15   S    
C78   C87   A    
C40   C60   S    
C114  H58   S    
C57   C66   S    
C11   H65   S    
C48   H22   S    
Cr11  O16   S    
C64   C102  A    
C99   C108  A    
C15   H69   S    
C33   C42   S    
C88   H43   S    
C35   C59   S    
Cr5   O34   S    
C75   C84   A    
C40   C49   S    
C59   C136  S    
C3    C29   S    
Cr1   O52   S    
C82   H37   S    
Cr12  O28   S    
Cr6   O5    S    
C2    C44   S    
C29   C38   S    
C1    C65   S    
C32   C41   S    
C77   C97   A    
C34   H9    S    
C42   C62   S    
Cr10  O22   S    
C75   C91   A    
Cr6   O47   S    
C13   C56   S    
C7    H78   S    
C133  O1    A    
C79   O4    A    
C81   C83   A    
C29   H4    S    
C55   C143  S    
C8    C134  S    
Cr10  O14   S    
C135  O37   A    
Cr6   O45   S    
C62   C135  S    
Cr2   O29   S    
C101  O6    A    
C27   C143  S    
C21   C129  S    
Cr1   O2    S    
C99   C102  A    
C23   C131  S    
C103  C105  A    
C10   C144  S    
C12   C35   S    
C19   C28   S    
C12   H66   S    
C24   C58   S    
C80   H52   S    
C132  O26   A    
C63   C68   S    
C5    C60   S    
Cr9   O46   S    
Cr4   O33   S    
C34   C43   S    
C57   O10   A    
C110  C119  A    
C19   C45   S    
C103  C111  A    
C80   C95   A    
C128  O21   A    
C14   C22   S    
Cr7   O48   S    
C18   C126  S    
C28   C37   S    
Cr4   O42   S    
C30   C39   S    
C1    O52   A    
C125  O18   A    
C107  C116  A    
C104  C113  A    
Cr1   O44   S    
C9    C18   S    
C113  C121  A    
C128  O30   A    
C140  O50   A    
C25   C132  S    
C141  O51   A    
C25   C33   S    
C131  O25   A    
C69   C97   A    
C117  H72   S    
C55   C141  S    
C104  C106  A    
C37   H11   S    
C101  O15   A    
C46   C49   S    
C70   C94   A    
C65   C98   A    
Cr12  O44   S    
C72   C92   A    
C107  H55   S    
C118  H73   S    
C31   C40   S    
C24   H30   S    
Cr5   O23   S    
C38   C58   S    
Cr8   O10   S    
C72   C81   A    
Cr2   O46   S    
C130  O32   A    
C9    H63   S    
C71   C101  S    
C31   H6    S    
Cr4   O35   S    
Cr10  O47   S    
C110  H54   S    
C35   C48   S    
C108  C117  A    
C116  H71   S    
C111  H60   S    
Cr2   O39   S    
C3    H34   S    
Cr3   O32   S    
C133  O36   A    
C10   C13   S    
C98   C107  A    
C43   C134  S    
C91   C93   A    
Cr3   O47   S    
C10   C19   S    
C39   C59   S    
C125  O27   A    
C136  O23   A    
C126  O28   A    
C2    H28   S    
C15   C52   S    
C53   H35   S    
C5    C14   S    
C7    C16   S    
C54   C142  S    
C98   C100  A    
C102  C110  A    
C142  H1    S    
C41   C50   S    
C76   H49   S    
C6    C61   S    
C6    H67   S    
C115  C124  A    
C136  O38   A    
C23   C50   S    
C68   O3    A    
Cr8   O19   S    
C69   C106  A    
C85   H40   S    
Cr12  O36   S    
C27   C36   S    
C73   H46   S    
C23   C32   S    
C77   H50   S    
Cr9   O11   S    
C123  O17   A    
C8    H62   S    
C86   H41   S    
C56   C144  S    
C3    C58   S    
Cr6   O6    S    
C122  H77   S    
C35   H31   S    
C8    C142  S    
C30   H5    S    
C39   C48   S    
C58   C139  S    
Cr11  O17   S    
C134  H27   S    
C51   H26   S    
C132  O35   A    
C10   H64   S    
C17   C26   S    
C74   C89   A    
C14   H68   S    
C64   C93   A    
C20   C128  S    
C39   H14   S    
C43   H18   S    
Cr10  O15   S    
C11   C24   S    
Cr5   O4    S    
C139  O49   A    
Cr11  O48   S    
Cr2   O30   S    
C16   C53   S    
C121  C124  A    
Cr8   O44   S    
C119  H74   S    
C6    C15   S    
Cr11  O26   S    
C26   C34   S    
C112  O7    A    
C54   C140  S    
Cr1   O1    S    
C63   C92   A    
Cr5   O46   S    
C126  O19   A    
Cr3   O40   S    
C129  O31   A    
C60   C137  S    
C49   H24   S    
C15   C23   S    
Cr7   O8    S    
C79   O13   A    
C70   C90   S    
C120  H75   S    
C113  H61   S    
C123  O8    A    
C120  C122  A    
C112  O16   A    
C20   C29   S    
C85   C87   A    
C68   O11   A    
C41   H16   S    
C22   C31   S    
C127  O20   A    
C105  C114  A    
C33   H8    S    
Cr3   O31   S    
C129  O22   A    
C45   H20   S    
Cr9   O13   S    
C12   C21   S    
C28   H3    S    
C138  O40   A    
C111  C120  A    
C66   C99   A    
C25   C51   S    
C81   H36   S    
C63   C100  A    
C72   H44   S    
Cr12  O27   S    
C56   C138  S    
C53   C62   S    
C131  O33   A    
C144  H23   S    
C36   H10   S    
Cr12  O37   S    
C89   C92   A    
C38   C47   S    
Cr9   O20   S    
C77   C86   A    
C67   C96   A    
C50   H25   S    
Cr7   O50   S    
Cr4   O48   S    
Cr1   O12   S    
C24   C47   S    
C135  O12   A    
C18   C27   S    
C57   O2    A    
C42   H17   S    
C75   H48   S    
C66   C91   A    
C42   C51   S    
C124  H79   S    
C83   H38   S    
C47   H21   S    
Cr8   O18   S    
C2    C9    S    
C17   C125  S    
C4    C59   S    
C19   C127  S    
C143  H12   S    
C114  C122  A    
C90   O5    A    
C46   H32   S    
C26   C142  S    
C4    C30   S    
C5    C31   S    
