data_str_m9_o11_o16_f0_sra.sym.109
_audit_creation_date              2012-12-11T14:17:26-0500
_audit_creation_method            fapswitch 2.2
_symmetry_space_group_name_H-M    P1
_symmetry_Int_Tables_number       1
_space_group_crystal_system       triclinic
_cell_length_a                    6.939031
_cell_length_b                    13.654672
_cell_length_c                    20.458121
_cell_angle_alpha                 102.190776
_cell_angle_beta                  90.349394
_cell_angle_gamma                 90.587104
_cell_volume                      1894.53238799

loop_
_atom_site_label
_atom_site_type_symbol
_atom_type_description
_atom_site_fract_x
_atom_site_fract_y
_atom_site_fract_z
_atom_type_partial_charge
O1    O     O_R   0.506860 0.599390 0.449240 -0.539739
O2    O     O_R   0.180220 0.594600 0.586780 -0.546801
O3    O     O_R   0.004500 0.400610 0.550760 -0.550129
C1    C     C_R   0.350155 0.617424 0.612712 0.724047
O4    O     O_R   0.177490 0.611290 0.451970 -0.529951
O5    O     O_R   0.001750 0.417420 0.414990 -0.510112
C2    C     C_R   0.346601 0.637553 0.434856 0.770187
O6    O     O_R   0.509610 0.582580 0.585010 -0.551432
O7    O     O_3   0.337420 0.436370 0.488020 -0.359111
V1    V     V_3+5 0.064680 0.511800 0.502220 1.515838
O8    O     O_R   0.671710 0.405400 0.413220 -0.529526
C3    C     C_R   0.839845 0.385551 0.385971 0.824774
O9    O     O_R   0.674440 0.388710 0.548030 -0.544398
C4    C     C_R   0.843094 0.362605 0.565003 0.725313
V2    V     V_3+5 0.564010 0.488200 0.497780 1.515763
O10   O     O_3   0.841140 0.563630 0.511980 -0.382101
C5    C     C_R   0.935500 0.110990 0.607422 0.414694
H1    H     H_    0.905551 0.980184 0.687404 0.180007
C6    C     C_R   0.854204 0.281934 0.602058 -0.097432
C7    C     C_R   0.875709 0.310246 0.922623 0.315080
C8    C     C_R   0.902261 0.383573 0.885191 0.409262
C9    C     C_R   0.905434 0.356759 0.815871 -0.289466
C10   C     C_R   0.869537 0.257300 0.781417 0.025148
C11   C     C_R   0.860228 0.179902 0.818547 -0.000651
C12   C     C_R   0.858542 0.232735 0.710130 0.051613
C13   C     C_R   0.899210 0.133531 0.676867 -0.046550
C14   C     C_R   0.893334 0.057649 0.713160 -0.106696
C15   C     C_R   0.854524 0.078271 0.781651 0.104278
C16   C     C_R   0.807445 0.302683 0.670616 0.052996
C17   C     C_R   0.921318 0.186435 0.570315 0.015554
C18   C     C_R   0.862147 0.208464 0.890236 -0.224282
H2    H     H_    0.940005 0.414856 0.789102 0.183668
C19   C     C_2   0.999538 0.306697 0.278433 0.382365
C20   C     C_2   0.847894 0.313555 0.320648 -0.400229
H3    H     H_    0.728178 0.260845 0.308546 0.143516
C21   C     C_2   0.016687 0.224032 0.218330 0.374103
C22   C     C_2   0.863278 0.189685 0.178314 -0.392602
H4    H     H_    0.722256 0.220909 0.192043 0.164367
C23   C     C_2   0.230607 0.804571 0.776718 -0.129164
C24   C     C_2   0.356270 0.800401 0.826892 0.009585
H5    H     H_    0.130068 0.865949 0.783160 0.113102
C25   C     C_2   0.213147 0.728981 0.712876 -0.109965
C26   C     C_2   0.366827 0.690085 0.677114 -0.294718
H6    H     H_    0.068890 0.710938 0.692806 0.139926
H7    H     H_    0.510913 0.714399 0.694415 0.144003
C27   C     C_R   0.407166 0.887983 0.388434 0.418643
H8    H     H_    0.402327 0.835380 0.480303 0.173084
H9    H     H_    0.428097 0.013241 0.302697 0.203093
C28   C     C_R   0.358096 0.714775 0.395059 -0.128917
C29   C     C_R   0.338437 0.685343 0.071815 -0.103695
C30   C     C_R   0.331619 0.608708 0.107371 0.161261
C31   C     C_R   0.339942 0.632168 0.177326 -0.148166
C32   C     C_R   0.356810 0.732700 0.213420 0.071144
C33   C     C_R   0.369099 0.809774 0.176249 0.053018
C34   C     C_R   0.364724 0.759045 0.285040 0.034152
C35   C     C_R   0.393119 0.861335 0.317791 0.029625
C36   C     C_R   0.407380 0.934937 0.279527 -0.116810
C37   C     C_R   0.394259 0.909792 0.210311 -0.181620
C38   C     C_R   0.345290 0.687170 0.325408 -0.200598
C39   C     C_R   0.390091 0.814587 0.426283 -0.148193
C40   C     C_R   0.357379 0.785235 0.105437 -0.126427
H10   H     H_    0.319996 0.608906 0.304580 0.166314
H11   H     H_    0.331051 0.667287 0.017619 0.137457
H12   H     H_    0.335665 0.569624 0.201732 0.157325
H13   H     H_    0.406205 0.969903 0.183516 0.165504
O11   O     O_R   0.203230 0.917310 0.915020 -0.556488
O12   O     O_R   0.535500 0.888690 0.048040 -0.543158
O13   O     O_R   0.711080 0.082610 0.085000 -0.534525
C41   C     C_R   0.366681 0.862535 0.065280 0.701780
O14   O     O_R   0.532630 0.905370 0.913230 -0.548846
O15   O     O_R   0.708190 0.099410 0.949230 -0.540423
C42   C     C_R   0.363256 0.881224 0.887830 0.695671
O16   O     O_R   0.206120 0.900510 0.050790 -0.536127
O17   O     O_3   0.375360 0.063570 0.011990 -0.350368
V3    V     V_3+5 0.648170 0.988200 0.997780 1.496528
O18   O     O_R   0.038240 0.111390 0.951940 -0.540609
C43   C     C_R   0.869760 0.134818 0.932827 0.806472
O19   O     O_R   0.041120 0.094710 0.086750 -0.501661
C44   C     C_R   0.873543 0.116004 0.113599 0.854428
V4    V     V_3+5 0.148810 0.011930 0.002180 1.547873
O20   O     O_3   0.871750 0.936430 0.988010 -0.386277
C45   C     C_3   0.968903 0.161601 0.496441 -0.555560
H14   H     H_    0.943505 0.223849 0.470565 0.152860
H15   H     H_    0.123007 0.141212 0.490161 0.261184
H16   H     H_    0.878289 0.097464 0.470487 0.263652
Cl1   Cl    Cl    0.251395 0.175880 0.201449 -0.623557
C46   C     C_3   0.488994 0.712657 0.825383 -0.688578
H17   H     H_    0.525337 0.705237 0.877076 0.212828
H18   H     H_    0.419210 0.640912 0.800245 0.223554
H19   H     H_    0.625737 0.724632 0.800176 0.196627
Cl2   Cl    Cl    0.449898 0.012248 0.432165 -0.657442
C47   C     C_3   0.316853 0.501030 0.071233 -0.567377
H20   H     H_    0.308144 0.493684 0.016168 0.236118
H21   H     H_    0.445465 0.459947 0.082962 0.229071
H22   H     H_    0.185839 0.466112 0.087772 0.252600
Cl3   Cl    Cl    0.006708 0.988961 0.566415 -0.642492
C48   C     C_3   0.679741 0.391789 0.697431 -0.749011
H23   H     H_    0.553577 0.391072 0.663770 0.215080
H24   H     H_    0.616069 0.389072 0.746563 0.224100
H25   H     H_    0.761384 0.463058 0.700756 0.190047
Cl4   Cl    Cl    0.867282 0.346111 0.010909 -0.626808
Cl5   Cl    Cl    0.936384 0.510625 0.923956 -0.629882
C49   C     C_3   0.794777 0.989689 0.810332 -0.743956
H26   H     H_    0.778626 0.919709 0.771404 0.184469
H27   H     H_    0.902433 0.973942 0.846702 0.199574
H28   H     H_    0.650729 0.004644 0.832809 0.219003
Cl6   Cl    Cl    0.191696 0.395338 0.292353 -0.620702

loop_
_geom_bond_atom_site_label_1
_geom_bond_atom_site_label_2
_ccdc_geom_bond_type
C46   H17   S    
C29   H11   S    
C34   C38   A    
C19   Cl6   S    
C1    O6    A    
C48   H23   S    
H9    C36   S    
C23   H5    S    
C32   C33   A    
O13   V3    S    
C22   C44   S    
C13   C14   A    
C28   C39   A    
C9    H2    S    
C5    C13   A    
C24   C46   S    
C21   C22   D    
O5    C3    A    
O19   V4    S    
V2    O10   S    
C19   C21   S    
C35   C36   A    
C20   H3    S    
C29   C30   A    
H8    C39   S    
O8    V2    S    
O11   C42   A    
C10   C11   A    
C41   O16   A    
O1    V2    S    
O7    V1    S    
O13   C44   A    
O17   V4    S    
C8    C9    A    
C5    C17   A    
C25   H6    S    
C48   H24   S    
C18   C43   S    
C23   C25   S    
C32   C34   A    
C12   C16   A    
O17   V3    S    
C30   C31   A    
C11   C15   A    
O18   C43   A    
C2    C28   S    
C31   H12   S    
C23   C24   D    
O4    C2    A    
O19   C44   A    
V3    O20   S    
C7    Cl4   S    
C21   Cl1   S    
C12   C13   A    
C47   H22   S    
O12   C41   A    
C17   C45   S    
O2    C1    A    
C22   H4    S    
C30   C47   S    
C37   H13   S    
C34   C35   A    
C47   H21   S    
C19   C20   D    
C49   H27   S    
C5    Cl3   S    
C26   H7    S    
O3    C4    A    
C8    Cl5   S    
C1    C26   S    
O6    V2    S    
C45   H15   S    
C46   H18   S    
O12   V3    S    
C25   C26   D    
C3    C20   S    
O2    V1    S    
O15   C43   A    
C48   H25   S    
C31   C32   A    
C33   C37   A    
C40   C41   S    
C38   H10   S    
C24   C42   S    
C27   C39   A    
O1    C2    A    
C4    C6    S    
H1    C14   S    
O18   V4    S    
V4    O20   S    
O5    V1    S    
O8    C3    A    
C27   Cl2   S    
C33   C40   A    
C45   H16   S    
O11   V4    S    
C28   C38   A    
C16   C48   S    
O9    V2    S    
O7    V2    S    
C11   C18   A    
O4    V1    S    
O3    V1    S    
V1    O10   S    
O15   V3    S    
C15   C49   S    
C36   C37   A    
C47   H20   S    
O16   V4    S    
C49   H28   S    
C10   C12   A    
C7    C8    A    
O14   V3    S    
C45   H14   S    
C46   H19   S    
C27   C35   A    
C49   H26   S    
C29   C40   A    
C9    C10   A    
O14   C42   A    
O9    C4    A    
C6    C17   A    
C14   C15   A    
C7    C18   A    
C6    C16   A    
