data_str_m9_o11_o16_f0_sra.sym.105
_audit_creation_date              2012-12-11T14:17:26-0500
_audit_creation_method            fapswitch 2.2
_symmetry_space_group_name_H-M    P1
_symmetry_Int_Tables_number       1
_space_group_crystal_system       triclinic
_cell_length_a                    6.944876
_cell_length_b                    13.628306
_cell_length_c                    20.404912
_cell_angle_alpha                 102.144339
_cell_angle_beta                  90.078839
_cell_angle_gamma                 90.572781
_cell_volume                      1887.93504226

loop_
_atom_site_label
_atom_site_type_symbol
_atom_type_description
_atom_site_fract_x
_atom_site_fract_y
_atom_site_fract_z
_atom_type_partial_charge
O1    O     O_R   0.506860 0.599390 0.449240 -0.540756
O2    O     O_R   0.180220 0.594600 0.586780 -0.544116
O3    O     O_R   0.004500 0.400610 0.550760 -0.532422
C1    C     C_R   0.349096 0.615920 0.613520 0.737982
O4    O     O_R   0.177490 0.611290 0.451970 -0.542785
O5    O     O_R   0.001750 0.417420 0.414990 -0.537041
C2    C     C_R   0.346741 0.638170 0.435410 0.692411
O6    O     O_R   0.509610 0.582580 0.585010 -0.543598
O7    O     O_3   0.337420 0.436370 0.488020 -0.370583
V1    V     V_3+5 0.064680 0.511800 0.502220 1.438821
O8    O     O_R   0.671710 0.405400 0.413220 -0.548322
C3    C     C_R   0.839725 0.383864 0.386603 0.759651
O9    O     O_R   0.674440 0.388710 0.548030 -0.549141
C4    C     C_R   0.843009 0.361994 0.564721 0.768050
V2    V     V_3+5 0.564010 0.488200 0.497780 1.419846
O10   O     O_3   0.841140 0.563630 0.511980 -0.377048
C5    C     C_R   0.909222 0.112792 0.612817 -0.246363
H1    H     H_    0.928645 0.988594 0.696258 0.120041
H2    H     H_    0.935698 0.035405 0.588559 0.129502
C6    C     C_R   0.853133 0.284224 0.604223 -0.158296
C7    C     C_R   0.852052 0.315106 0.929088 -0.259858
C8    C     C_R   0.863876 0.392101 0.894339 -0.182666
C9    C     C_R   0.883635 0.371482 0.824582 0.449183
C10   C     C_R   0.874218 0.270048 0.787220 -0.015399
C11   C     C_R   0.876041 0.191706 0.824102 0.011657
C12   C     C_R   0.871057 0.242779 0.715295 0.087585
C13   C     C_R   0.897685 0.140702 0.682970 0.076266
C14   C     C_R   0.910486 0.066674 0.720629 -0.175008
C15   C     C_R   0.894304 0.091211 0.789816 -0.165161
C16   C     C_R   0.837283 0.312147 0.673962 -0.281943
C17   C     C_R   0.888397 0.184246 0.573232 0.458014
C18   C     C_R   0.863460 0.215390 0.894974 -0.072815
H3    H     H_    0.793971 0.388089 0.693939 0.187910
H4    H     H_    0.841862 0.333530 0.983285 0.127791
H5    H     H_    0.865454 0.469159 0.922091 0.142653
H6    H     H_    0.899629 0.030352 0.816363 0.110236
C19   C     C_2   0.005394 0.288153 0.285342 -0.126443
C20   C     C_2   0.842110 0.315189 0.319924 -0.304172
H7    H     H_    0.142567 0.316717 0.307423 0.133734
H8    H     H_    0.703468 0.286946 0.299585 0.123076
C21   C     C_2   0.013884 0.219995 0.217745 -0.134066
C22   C     C_2   0.858761 0.183212 0.180399 -0.307558
H9    H     H_    0.156766 0.200336 0.197998 0.131879
H10   H     H_    0.714623 0.202112 0.198569 0.126059
C23   C     C_2   0.204269 0.790265 0.782424 -0.133182
C24   C     C_2   0.363393 0.815352 0.820049 -0.306139
H11   H     H_    0.066500 0.820392 0.801725 0.134241
H12   H     H_    0.501936 0.785488 0.802066 0.132997
C25   C     C_2   0.202775 0.721793 0.714904 -0.139574
C26   C     C_2   0.361052 0.684050 0.680331 -0.318282
H13   H     H_    0.061528 0.702550 0.692732 0.141583
H14   H     H_    0.504164 0.702774 0.700471 0.132417
C27   C     C_R   0.386678 0.888862 0.387687 -0.152811
H15   H     H_    0.382801 0.838670 0.480538 0.103935
H16   H     H_    0.404947 0.013928 0.304463 0.123537
H17   H     H_    0.401014 0.967040 0.412716 0.114332
C28   C     C_R   0.357160 0.715073 0.395326 -0.030169
C29   C     C_R   0.336567 0.684989 0.071451 -0.166848
C30   C     C_R   0.324976 0.609047 0.107244 -0.119295
C31   C     C_R   0.332312 0.631718 0.177055 -0.157296
C32   C     C_R   0.351681 0.732254 0.213215 0.077507
C33   C     C_R   0.363614 0.809833 0.176083 0.066419
C34   C     C_R   0.359423 0.758393 0.284812 0.071665
C35   C     C_R   0.378762 0.861119 0.317432 0.141213
C36   C     C_R   0.390119 0.935541 0.279880 -0.200087
C37   C     C_R   0.382690 0.910522 0.210391 -0.194362
C38   C     C_R   0.348724 0.686261 0.325443 -0.214047
C39   C     C_R   0.376167 0.816166 0.426391 -0.175006
C40   C     C_R   0.355896 0.785015 0.105101 -0.073870
H18   H     H_    0.334137 0.607044 0.304675 0.092494
H19   H     H_    0.330311 0.665732 0.017174 0.103532
H20   H     H_    0.322254 0.568606 0.200972 0.106442
H21   H     H_    0.309987 0.531734 0.080652 0.118722
H22   H     H_    0.392066 0.971200 0.183730 0.117587
O11   O     O_R   0.203230 0.917310 0.915020 -0.539463
O12   O     O_R   0.535500 0.888690 0.048040 -0.540375
O13   O     O_R   0.711080 0.082610 0.085000 -0.544875
C41   C     C_R   0.366361 0.862269 0.064982 0.689371
O14   O     O_R   0.532630 0.905370 0.913230 -0.546842
O15   O     O_R   0.708190 0.099410 0.949230 -0.539451
C42   C     C_R   0.364268 0.884095 0.886558 0.744971
O16   O     O_R   0.206120 0.900510 0.050790 -0.538191
O17   O     O_3   0.375360 0.063570 0.011990 -0.373483
V3    V     V_3+5 0.648170 0.988200 0.997780 1.419081
O18   O     O_R   0.038240 0.111390 0.951940 -0.542418
C43   C     C_R   0.869930 0.137583 0.934839 0.705035
O19   O     O_R   0.041120 0.094710 0.086750 -0.542722
C44   C     C_R   0.872598 0.115661 0.113550 0.743557
V4    V     V_3+5 0.148810 0.011930 0.002180 1.420647
O20   O     O_3   0.871750 0.936430 0.988010 -0.371537
O21   O     O_3   0.912346 0.157521 0.504537 -0.557148
C45   C     C_3   0.740556 0.111822 0.475612 -0.272700
H23   H     H_    0.615777 0.163089 0.487878 0.138378
H24   H     H_    0.711334 0.039778 0.491411 0.139743
H25   H     H_    0.756731 0.094486 0.420299 0.168998
O22   O     O_3   0.920905 0.452096 0.795197 -0.570775
C46   C     C_3   0.122206 0.463617 0.790556 -0.270805
H26   H     H_    0.188630 0.395705 0.759154 0.145819
H27   H     H_    0.190569 0.481460 0.841109 0.144230
H28   H     H_    0.152211 0.527451 0.766042 0.176513

loop_
_geom_bond_atom_site_label_1
_geom_bond_atom_site_label_2
_ccdc_geom_bond_type
O19   C44   A    
C21   C22   D    
O15   V3    S    
O12   V3    S    
C46   H26   S    
C6    C16   A    
O18   C43   A    
C8    H5    S    
C15   H6    S    
C12   C13   A    
O16   V4    S    
C22   H10   S    
C14   C15   A    
O12   C41   A    
O5    C3    A    
O14   V3    S    
C27   C35   A    
C29   H19   S    
H15   C39   S    
C31   H20   S    
V2    O10   S    
C37   H22   S    
C9    O22   S    
C32   C34   A    
C27   C39   A    
O15   C43   A    
C46   H27   S    
O8    V2    S    
O13   C44   A    
C25   H13   S    
C26   H14   S    
C9    C10   A    
O1    V2    S    
O7    V1    S    
C30   H21   S    
C1    O6    A    
C11   C18   A    
C30   C31   A    
O9    C4    A    
C3    C20   S    
C21   H9    S    
C40   C41   S    
V3    O20   S    
C28   C38   A    
H16   C36   S    
C24   H12   S    
C23   H11   S    
C11   C15   A    
O17   V4    S    
C7    C18   A    
C34   C38   A    
C33   C37   A    
C5    C13   A    
C4    C6    S    
H1    C14   S    
C10   C11   A    
O21   C45   S    
O14   C42   A    
O18   V4    S    
O11   C42   A    
C7    H4    S    
O13   V3    S    
C29   C30   A    
C23   C24   D    
C45   H25   S    
C33   C40   A    
C1    C26   S    
C31   C32   A    
O2    C1    A    
C19   C20   D    
C24   C42   S    
C41   O16   A    
O17   V3    S    
C23   C25   S    
C18   C43   S    
O22   C46   S    
C45   H24   S    
O3    C4    A    
C12   C16   A    
O6    V2    S    
C17   O21   S    
O9    V2    S    
C5    C17   A    
C22   C44   S    
C28   C39   A    
O2    V1    S    
C46   H28   S    
O4    C2    A    
C27   H17   S    
C16   H3    S    
O1    C2    A    
C10   C12   A    
O5    V1    S    
O8    C3    A    
C29   C40   A    
C38   H18   S    
C35   C36   A    
O19   V4    S    
O7    V2    S    
O4    V1    S    
C19   H7    S    
O3    V1    S    
V1    O10   S    
C20   H8    S    
C45   H23   S    
C5    H2    S    
C36   C37   A    
C19   C21   S    
C32   C33   A    
O11   V4    S    
C34   C35   A    
C25   C26   D    
C13   C14   A    
C8    C9    A    
V4    O20   S    
C7    C8    A    
C2    C28   S    
C6    C17   A    
