data_str_m12_o9_o24_f0_bcu.sym.54
_audit_creation_date              2012-12-11T17:47:31-0500
_audit_creation_method            fapswitch 2.2
_symmetry_space_group_name_H-M    P1
_symmetry_Int_Tables_number       1
_space_group_crystal_system       triclinic
_cell_length_a                    14.83286
_cell_length_b                    14.951101
_cell_length_c                    15.079267
_cell_angle_alpha                 110.44051
_cell_angle_beta                  109.07287
_cell_angle_gamma                 108.45952
_cell_volume                      2587.58103604

loop_
_atom_site_label
_atom_site_type_symbol
_atom_type_description
_atom_site_fract_x
_atom_site_fract_y
_atom_site_fract_z
_atom_type_partial_charge
C1    C     C_R   0.974534 0.250777 0.063909 -0.099198
C2    C     C_R   0.054086 0.133562 0.158926 -0.228145
C3    C     C_R   0.279563 0.117661 0.884361 -0.055509
C4    C     C_R   0.971655 0.944322 0.340369 -0.130871
C5    C     C_R   0.204821 0.090667 0.919785 -0.182565
C6    C     C_R   0.034994 0.000787 0.306844 -0.171267
C7    C     C_R   0.631131 0.271995 0.092959 -0.342297
C8    C     C_R   0.318562 0.655124 0.703623 -0.381862
C9    C     C_R   0.688283 0.357192 0.200129 -0.227690
C10   C     C_R   0.205850 0.601242 0.637897 -0.193484
C11   C     C_R   0.739698 0.340675 0.284469 0.098827
C12   C     C_R   0.092551 0.805689 0.008593 -0.132623
C13   C     C_R   0.143929 0.648038 0.665950 0.108213
C14   C     C_R   0.719062 0.234667 0.261671 -0.398113
C15   C     C_R   0.197034 0.750379 0.760057 -0.447187
C16   C     C_R   0.315555 0.761253 0.225575 -0.092222
C17   C     C_R   0.709111 0.192724 0.796802 -0.003398
C18   C     C_R   0.657562 0.148221 0.154455 0.499666
C19   C     C_R   0.308317 0.798789 0.832028 0.548505
C20   C     C_R   0.616823 0.167858 0.069060 0.517220
C21   C     C_R   0.370053 0.751958 0.802495 0.487889
C22   C     C_R   0.844591 0.436866 0.485893 -0.259473
C23   C     C_R   0.324927 0.792282 0.328682 0.018767
C24   C     C_R   0.007672 0.601626 0.494025 -0.262834
C25   C     C_R   0.943119 0.513128 0.582584 0.059651
C26   C     C_R   0.918861 0.515628 0.394284 0.045865
C27   C     C_R   0.026834 0.595007 0.585973 0.064477
C28   C     C_R   0.832834 0.434596 0.389339 0.084581
C29   C     C_R   0.227217 0.163430 0.023226 0.109832
C30   C     C_R   0.983705 0.000009 0.209954 0.073715
C31   C     C_R   0.398043 0.290348 0.053851 -0.102303
C32   C     C_R   0.806913 0.899049 0.189511 -0.082516
C33   C     C_R   0.236763 0.023035 0.546863 -0.126050
C34   C     C_R   0.708092 0.128220 0.704312 0.004339
C35   C     C_R   0.917884 0.016238 0.616224 -0.133136
C36   C     C_R   0.313093 0.999378 0.523969 -0.115543
C37   C     C_R   0.813229 0.973447 0.603981 -0.131922
C38   C     C_R   0.337193 0.922521 0.544089 0.092988
C39   C     C_R   0.728008 0.972134 0.525962 0.101680
C40   C     C_R   0.213902 0.408681 0.907985 -0.197979
C41   C     C_R   0.776536 0.592864 0.021491 -0.199986
C42   C     C_R   0.284701 0.870399 0.588217 -0.120991
C43   C     C_R   0.747689 0.009483 0.457074 -0.186190
C44   C     C_R   0.205978 0.892137 0.607801 -0.118883
C45   C     C_R   0.305827 0.499568 0.938098 -0.120643
C46   C     C_R   0.853353 0.055738 0.472353 -0.106241
C47   C     C_R   0.182159 0.968344 0.587285 -0.135870
C48   C     C_R   0.938366 0.059304 0.551927 -0.120804
C49   C     C_R   0.527751 0.977421 0.628360 -0.169340
C50   C     C_R   0.525430 0.870494 0.435215 -0.237904
C51   C     C_R   0.624299 0.013007 0.623780 0.048587
C52   C     C_R   0.426450 0.856559 0.433915 0.076144
C53   C     C_R   0.625227 0.950229 0.529382 0.041513
C54   C     C_R   0.428580 0.909697 0.533708 0.002224
C55   C     C_R   0.376469 0.216546 0.951600 -0.066832
C56   C     C_R   0.676135 0.503052 0.941462 -0.123731
C57   C     C_R   0.857798 0.891887 0.280654 -0.138002
C58   C     C_R   0.048229 0.040562 0.162737 0.036520
C59   C     C_R   0.162087 0.124674 0.069685 0.026285
C60   C     C_R   0.323199 0.264127 0.089481 -0.130419
C61   C     C_R   0.869397 0.952205 0.153414 -0.109524
C62   C     C_R   0.095073 0.985135 0.112438 0.053704
C63   C     C_R   0.096189 0.166009 0.097759 0.053499
C64   C     C_R   0.993103 0.593303 0.297028 -0.161697
C65   C     C_R   0.943802 0.409586 0.685159 -0.137577
C66   C     C_3   0.462352 0.442065 0.818148 -0.199257
C67   C     C_R   0.935601 0.505100 0.302146 0.069169
C68   C     C_3   0.509451 0.563559 0.023214 -0.192108
C69   C     C_3   0.446450 0.543429 0.860450 -0.110216
C70   C     C_3   0.523010 0.462517 0.981069 -0.127671
C71   C     C_3   0.397092 0.500101 0.921181 0.175185
C72   C     C_3   0.574093 0.505365 0.921007 0.184745
C73   C     C_3   0.410428 0.399046 0.878402 -0.139556
C74   C     C_3   0.560521 0.606691 0.962926 -0.107061
C75   C     C_R   0.301399 0.590522 0.996757 0.487985
C76   C     C_R   0.686683 0.410861 0.928119 0.501482
C77   C     C_R   0.909151 0.411877 0.212061 -0.123176
C78   C     C_R   0.962451 0.503466 0.677904 0.048373
C79   C     C_R   0.025333 0.592543 0.780782 -0.084862
C80   C     C_R   0.220017 0.753905 0.313836 -0.124430
C81   C     C_R   0.795175 0.195916 0.701954 -0.137627
C82   C     C_R   0.067848 0.249965 0.973229 -0.134717
C83   C     C_R   0.997722 0.801005 0.095650 -0.139650
C84   C     C_R   0.052589 0.224063 0.049836 0.051499
C85   C     C_R   0.060840 0.868294 0.072204 0.062332
C86   C     C_R   0.165212 0.038529 0.083219 -0.222472
Cl1   Cl    Cl    0.556681 0.068040 0.932281 -0.590925
Cl2   Cl    Cl    0.511199 0.811344 0.885544 -0.568895
Cl3   Cl    Cl    0.643426 0.020080 0.131164 -0.566220
Cl4   Cl    Cl    0.365331 0.914929 0.958854 -0.561244
H1    H     H_    0.939707 0.240493 0.114292 0.099463
H2    H     H_    0.167033 0.524936 0.562598 0.151057
H3    H     H_    0.758556 0.220676 0.325949 0.173572
H4    H     H_    0.152083 0.792027 0.778393 0.159270
H5    H     H_    0.780995 0.374438 0.484437 0.141119
H6    H     H_    0.075224 0.661774 0.497749 0.138337
H7    H     H_    0.131796 0.011433 0.868884 0.113446
H8    H     H_    0.122968 0.037686 0.350953 0.118882
H9    H     H_    0.344506 0.314262 0.838951 0.111890
H10   H     H_    0.622646 0.690915 0.994178 0.142305
H11   H     H_    0.380932 0.777993 0.206626 0.165130
H12   H     H_    0.152351 0.833924 0.985037 0.138671
H13   H     H_    0.666260 0.164588 0.835311 0.178903
H14   H     H_    0.342528 0.319418 0.170510 0.114520
H15   H     H_    0.828790 0.952611 0.079496 0.168264
H16   H     H_    0.122857 0.986531 0.604806 0.097681
H17   H     H_    0.020197 0.095787 0.563974 0.104823
H18   H     H_    0.220851 0.084742 0.534627 0.101911
H19   H     H_    0.983823 0.019243 0.677905 0.106254
H20   H     H_    0.355871 0.043174 0.493747 0.115054
H21   H     H_    0.799661 0.945968 0.658386 0.122714
H22   H     H_    0.304872 0.813509 0.607386 0.135866
H23   H     H_    0.264065 0.060816 0.806354 0.136059
H24   H     H_    0.683576 0.010808 0.397745 0.152506
H25   H     H_    0.164787 0.851949 0.641081 0.123207
H26   H     H_    0.869586 0.089899 0.423181 0.145529
H27   H     H_    0.525754 0.018339 0.701960 0.177165
H28   H     H_    0.525865 0.825028 0.361711 0.127413
H29   H     H_    0.215235 0.007178 0.059950 0.168712
H30   H     H_    0.015218 0.172603 0.195003 0.128927
H31   H     H_    0.410895 0.574726 0.810545 0.145059
H32   H     H_    0.560973 0.433325 0.032822 0.103506
H33   H     H_    0.445585 0.393364 0.734140 0.119293
H34   H     H_    0.010251 0.939153 0.411281 0.127509
H35   H     H_    0.527626 0.612775 0.107747 0.123087
H36   H     H_    0.186423 0.324727 0.851493 0.123726
H37   H     H_    0.795279 0.677224 0.056647 0.137059
H38   H     H_    0.014206 0.677240 0.346184 0.108097
H39   H     H_    0.898312 0.325758 0.619363 0.105699
H40   H     H_    0.858642 0.328118 0.186832 0.110239
H41   H     H_    0.046520 0.676019 0.804558 0.104135
H42   H     H_    0.193580 0.755179 0.372223 0.119685
H43   H     H_    0.827674 0.174862 0.648856 0.135399
H44   H     H_    0.120067 0.239226 0.939987 0.117547
H45   H     H_    0.473711 0.366471 0.107533 0.112195
H46   H     H_    0.969820 0.820220 0.152703 0.132242
H47   H     H_    0.433616 0.235298 0.922798 0.135301
H48   H     H_    0.809038 0.847583 0.306379 0.133297
H49   H     H_    0.418511 0.699154 0.000768 0.344599
H50   H     H_    0.538768 0.300634 0.816691 0.313185
H51   H     H_    0.718993 0.861741 0.145940 0.178174
H52   H     H_    0.604837 0.289275 0.028579 0.202729
H53   H     H_    0.365635 0.620375 0.678065 0.181020
H54   H     H_    0.703560 0.438542 0.216074 0.143627
N1    N     N_R   0.947560 0.293820 0.002910 -0.047222
N2    N     N_R   0.789450 0.443190 0.997090 -0.071362
N3    N     N_R   0.945970 0.443180 0.152110 -0.046994
N4    N     N_R   0.054030 0.556820 0.847890 -0.041467
N5    N     N_R   0.151530 0.706170 0.208880 -0.047421
N6    N     N_R   0.848470 0.293830 0.791120 -0.052540
N7    N     N_R   0.004980 0.293810 0.946140 -0.043451
N8    N     N_R   0.995020 0.706190 0.053860 -0.043788
N9    N     N_R   0.052440 0.706180 0.997090 -0.043035
N10   N     N_R   0.208960 0.706170 0.152110 -0.035958
N11   N     N_R   0.791040 0.293830 0.847890 -0.046585
N12   N     N_R   0.154330 0.443160 0.946140 -0.067018
N13   N     N_R   0.845670 0.556840 0.053860 -0.066309
N14   N     N_R   0.002190 0.556820 0.208880 -0.042765
N15   N     N_R   0.997810 0.443180 0.791120 -0.046046
N16   N     N_R   0.210550 0.556810 0.002910 -0.071144
Ni1   Ni    Ni4+2 0.869690 0.369690 0.000000 0.239143
Ni2   Ni    Ni4+2 0.130310 0.630310 0.000000 0.279045
Ni3   Ni    Ni4+2 0.001390 0.369680 0.869810 0.203897
Ni4   Ni    Ni4+2 0.998610 0.630320 0.130190 0.203465
O1    O     O_3   0.361660 0.695984 0.022003 -0.746905
O2    O     O_3   0.604724 0.303963 0.865755 -0.803155

loop_
_geom_bond_atom_site_label_1
_geom_bond_atom_site_label_2
_ccdc_geom_bond_type
C75   N16   A    
C58   C62   A    
C80   H42   S    
C45   C71   S    
C22   H5    S    
C14   C18   A    
C1    N1    A    
C67   C77   A    
C24   C27   A    
C12   N9    A    
C65   N15   A    
C15   H4    S    
N2    N13   A    
N11   Ni1   S    
C1    C84   A    
C15   C19   A    
N6    Ni3   S    
C62   C86   A    
C34   C51   S    
C12   C85   A    
C56   C76   A    
C26   C67   S    
C6    H8    S    
C35   C37   A    
C24   C26   A    
C32   C61   A    
C38   C42   A    
C24   H6    S    
C43   H24   S    
C11   C14   A    
C66   C69   S    
C68   C74   S    
C81   N6    A    
C20   Cl1   S    
C33   C36   A    
C4    H34   S    
C69   C71   S    
H49   O1    S    
C42   H22   S    
C3    C55   A    
C49   H27   S    
C29   C59   S    
C44   H25   S    
C64   H38   S    
C22   C25   A    
C36   H20   S    
C4    C57   A    
C50   C52   A    
C76   O2    S    
C86   H29   S    
C34   C81   A    
C23   C80   A    
C61   H15   S    
C77   N3    A    
C14   H3    S    
C82   N7    A    
C35   H19   S    
C44   C47   A    
N14   Ni4   S    
C21   Cl2   S    
C40   H36   S    
C1    H1    S    
C22   C28   A    
C40   C45   A    
C33   H18   S    
C42   C44   A    
C32   C57   A    
C35   C48   A    
C26   C28   A    
N2    Ni1   S    
C9    H54   S    
C52   C54   A    
C5    C29   A    
H50   O2    S    
C80   N5    A    
C62   C85   S    
C66   C72   S    
C50   C53   A    
C25   C78   S    
C64   C67   A    
N12   N16   A    
N12   Ni3   S    
C72   C74   S    
C3    H23   S    
C71   C73   S    
C2    H30   S    
C78   C79   A    
C74   H10   S    
C49   C51   A    
C66   C73   S    
C51   C53   A    
N4    N15   A    
N16   Ni2   S    
C31   C60   A    
C82   H44   S    
C56   C72   S    
N5    N10   A    
C41   C56   A    
C12   H12   S    
C70   H32   S    
C65   H39   S    
C38   C54   S    
C29   C60   A    
C69   H31   S    
C47   H16   S    
C79   H41   S    
C70   C73   S    
C8    C21   A    
C32   H51   S    
C69   C74   S    
C75   O1    S    
N5    Ni4   S    
N1    N7    A    
C9    C11   A    
N13   Ni4   S    
C83   H46   S    
N8    Ni4   S    
C41   N13   A    
C31   H45   S    
C83   C85   A    
C5    H7    S    
C16   C23   A    
C82   C84   A    
N6    N11   A    
C13   C15   A    
N3    Ni1   S    
C33   C47   A    
N15   Ni3   S    
C4    C6    A    
C17   C34   A    
C41   H37   S    
C17   N11   A    
C2    C63   A    
C83   N8    A    
C73   H9    S    
C65   C78   A    
C6    C30   A    
C50   H28   S    
C18   Cl3   S    
C59   C63   A    
N10   Ni2   S    
C40   N12   A    
C3    C5    A    
C10   C13   A    
C39   C43   A    
C2    C58   A    
C81   H43   S    
C79   N4    A    
C25   C27   A    
C63   C84   S    
N7    Ni3   S    
C55   H47   S    
C46   H26   S    
N9    Ni2   S    
C45   C75   A    
N4    Ni2   S    
C36   C38   A    
C17   H13   S    
C59   C86   A    
C37   C39   A    
C19   Cl4   S    
C16   N10   A    
C23   C52   S    
C39   C53   S    
N1    Ni1   S    
C11   C28   S    
C68   C71   S    
C30   C58   S    
C57   H48   S    
C8    H53   S    
C18   C20   A    
C77   H40   S    
C43   C46   A    
C37   H21   S    
C10   H2    S    
C48   H17   S    
C46   C48   A    
C7    C9    A    
C16   H11   S    
N8    N9    A    
C8    C10   A    
C7    C20   A    
C30   C61   A    
C64   N14   A    
C76   N2    A    
C68   C70   S    
C66   H33   S    
C13   C27   S    
C70   C72   S    
C31   C55   A    
C60   H14   S    
N3    N14   A    
C68   H35   S    
C7    H52   S    
C49   C54   A    
C19   C21   A    
