data_str_m9_o1_o16_f0_sra.sym.47
_audit_creation_date              2012-12-11T15:47:05-0500
_audit_creation_method            fapswitch 2.2
_symmetry_space_group_name_H-M    P1
_symmetry_Int_Tables_number       1
_space_group_crystal_system       triclinic
_cell_length_a                    20.027979
_cell_length_b                    7.279055
_cell_length_c                    13.791536
_cell_angle_alpha                 89.840054
_cell_angle_beta                  102.472311
_cell_angle_gamma                 90.845731
_cell_volume                      1962.93267749

loop_
_atom_site_label
_atom_site_type_symbol
_atom_type_description
_atom_site_fract_x
_atom_site_fract_y
_atom_site_fract_z
_atom_type_partial_charge
O1    O     O_R   0.449560 0.506810 0.599700 -0.533327
O2    O     O_R   0.550440 0.006810 0.400300 -0.534009
O3    O     O_R   0.587960 0.180060 0.595760 -0.542939
O4    O     O_R   0.412040 0.680060 0.404240 -0.543691
C1    C     C_R   0.613335 0.344956 0.620411 0.698130
C2    C     C_R   0.386486 0.843200 0.379442 0.696970
O5    O     O_R   0.452380 0.177430 0.611700 -0.539811
O6    O     O_R   0.547620 0.677430 0.388300 -0.540605
O7    O     O_R   0.413900 0.001890 0.416350 -0.542239
O8    O     O_R   0.586100 0.501890 0.583650 -0.543168
C3    C     C_R   0.435599 0.345276 0.636472 0.672401
C4    C     C_R   0.563638 0.847073 0.362811 0.673160
O9    O     O_3   0.487530 0.337490 0.435890 -0.379066
O10   O     O_3   0.512470 0.837490 0.564110 -0.379531
V1    V     V_3+5 0.502310 0.064660 0.511890 1.403091
V2    V     V_3+5 0.497690 0.564660 0.488110 1.400917
C5    C     C_R   0.615377 0.970644 0.125538 -0.165695
C6    C     C_R   0.388015 0.416210 0.882057 -0.164195
H1    H     H_    0.519903 0.952512 0.171943 0.107432
H2    H     H_    0.482262 0.409193 0.832455 0.106766
H3    H     H_    0.705352 0.077669 0.020595 0.132863
H4    H     H_    0.302561 0.478654 0.999799 0.134413
H5    H     H_    0.591928 0.029516 0.054267 0.116750
H6    H     H_    0.413525 0.452609 0.957228 0.116114
C7    C     C_R   0.604091 0.862586 0.286863 -0.028064
C8    C     C_R   0.395260 0.354431 0.712879 -0.024772
C9    C     C_R   0.933348 0.783969 0.315073 0.128201
C10   C     C_R   0.064473 0.291036 0.687223 0.124788
C11   C     C_R   0.893073 0.736997 0.385445 0.166119
C12   C     C_R   0.102441 0.243418 0.615263 0.161672
C13   C     C_R   0.821284 0.721664 0.350556 0.065009
C14   C     C_R   0.174668 0.227007 0.646539 0.069336
C15   C     C_R   0.788504 0.826109 0.266962 0.040335
C16   C     C_R   0.210488 0.316893 0.734405 0.040464
C17   C     C_R   0.829227 0.892963 0.201647 -0.002737
C18   C     C_R   0.172299 0.371505 0.804612 -0.006994
C19   C     C_R   0.716655 0.863390 0.244479 0.099612
C20   C     C_R   0.283289 0.346364 0.757700 0.100277
C21   C     C_R   0.686316 0.944324 0.151963 0.146285
C22   C     C_R   0.316494 0.397899 0.855631 0.142760
C23   C     C_R   0.727404 0.007773 0.089161 -0.222001
C24   C     C_R   0.277975 0.437005 0.925495 -0.217238
C25   C     C_R   0.797757 0.989296 0.115465 -0.185846
C26   C     C_R   0.207240 0.430757 0.899710 -0.164668
C27   C     C_R   0.674692 0.836717 0.313642 -0.228201
C28   C     C_R   0.323891 0.338103 0.685749 -0.228331
C29   C     C_R   0.574336 0.927373 0.192273 -0.171442
C30   C     C_R   0.427229 0.392097 0.811243 -0.171990
C31   C     C_R   0.899988 0.853800 0.220716 -0.126332
C32   C     C_R   0.100201 0.353028 0.782006 -0.125590
H7    H     H_    0.696358 0.806086 0.390491 0.124079
H8    H     H_    0.300808 0.325906 0.607668 0.123478
H9    H     H_    0.827055 0.051222 0.066604 0.133476
H10   H     H_    0.180330 0.469495 0.956450 0.113416
C33   C     C_R   0.216751 0.024699 0.236417 0.144498
C34   C     C_R   0.780778 0.528735 0.775416 0.148162
C35   C     C_R   0.281210 0.008408 0.300291 -0.232503
C36   C     C_R   0.718225 0.514692 0.706347 -0.234913
H11   H     H_    0.301769 0.124183 0.347106 0.128337
H12   H     H_    0.697939 0.635331 0.664588 0.122394
C37   C     C_R   0.319591 0.848134 0.305751 -0.077464
C38   C     C_R   0.679246 0.352296 0.695575 -0.070644
C39   C     C_R   0.293041 0.700190 0.240459 0.142940
C40   C     C_R   0.702729 0.204272 0.761060 0.147037
C41   C     C_R   0.225784 0.710058 0.182919 -0.225872
C42   C     C_R   0.770513 0.209715 0.817708 -0.246048
H13   H     H_    0.205180 0.594954 0.135780 0.119297
H14   H     H_    0.789186 0.096519 0.865073 0.138185
C43   C     C_R   0.185888 0.867959 0.180899 -0.081832
C44   C     C_R   0.812357 0.366660 0.822151 -0.085692
O11   O     O_R   0.913920 0.203370 0.916260 -0.543324
O12   O     O_R   0.086080 0.703370 0.083740 -0.539744
O13   O     O_R   0.047620 0.535540 0.888290 -0.542948
O14   O     O_R   0.952380 0.035540 0.111710 -0.546856
C45   C     C_R   0.063490 0.368187 0.862743 0.715379
C46   C     C_R   0.936808 0.867407 0.138492 0.695422
O15   O     O_R   0.912040 0.532780 0.904220 -0.536007
O16   O     O_R   0.087960 0.032780 0.095780 -0.540664
O17   O     O_R   0.949550 0.708160 0.099720 -0.531721
O18   O     O_R   0.050450 0.208160 0.900280 -0.531478
C47   C     C_R   0.884322 0.365800 0.885229 0.669242
C48   C     C_R   0.115080 0.867206 0.115977 0.683263
O19   O     O_3   0.012480 0.375300 0.064060 -0.375902
O20   O     O_3   0.987520 0.875300 0.935940 -0.379089
V3    V     V_3+5 0.997690 0.648180 0.988110 1.391811
V4    V     V_3+5 0.002310 0.148180 0.011890 1.386342
C49   C     C_3   0.334944 0.534505 0.224887 -0.348542
C50   C     C_3   0.395452 0.589080 0.178901 -0.725779
H15   H     H_    0.377741 0.671306 0.110521 0.208602
H16   H     H_    0.434189 0.671558 0.230834 0.222259
H17   H     H_    0.420463 0.463460 0.159376 0.207174
H18   H     H_    0.352163 0.456852 0.294812 0.195410
H19   H     H_    0.303151 0.434608 0.173299 0.152993
C51   C     C_3   0.655785 0.047837 0.779321 -0.347346
C52   C     C_3   0.596497 0.115699 0.822849 -0.728952
H20   H     H_    0.561085 0.200932 0.769064 0.218491
H21   H     H_    0.567138 0.996187 0.842950 0.211544
H22   H     H_    0.616163 0.198769 0.890660 0.205889
H23   H     H_    0.637426 0.963214 0.711974 0.198538
H24   H     H_    0.683545 0.951632 0.833980 0.166834
C53   C     C_3   0.009164 0.743727 0.335172 -0.757608
H25   H     H_    0.037981 0.836911 0.392296 0.208486
H26   H     H_    0.017856 0.598154 0.357289 0.213035
H27   H     H_    0.032707 0.764050 0.270381 0.185321
C54   C     C_3   0.987973 0.254082 0.668895 -0.743453
H28   H     H_    0.976768 0.108467 0.647344 0.211497
H29   H     H_    0.965039 0.276052 0.733870 0.182722
H30   H     H_    0.960320 0.348019 0.612552 0.209530
C55   C     C_3   0.784487 0.563958 0.390457 -0.814604
H31   H     H_    0.815437 0.437544 0.395148 0.213361
H32   H     H_    0.776347 0.596592 0.465631 0.199092
H33   H     H_    0.735260 0.526366 0.339884 0.228043
C56   C     C_3   0.209105 0.078152 0.598504 -0.815797
H34   H     H_    0.176704 0.951594 0.587556 0.211615
H35   H     H_    0.218209 0.124775 0.525851 0.199209
H36   H     H_    0.257775 0.033090 0.646801 0.227556
C57   C     C_3   0.919007 0.697030 0.496825 -0.338755
C58   C     C_3   0.993898 0.729374 0.548916 -0.789046
H37   H     H_    0.029091 0.633296 0.524330 0.238995
H38   H     H_    0.010370 0.872070 0.540552 0.240937
H39   H     H_    0.999091 0.705407 0.629779 0.224693
H40   H     H_    0.888948 0.785110 0.537003 0.173962
H41   H     H_    0.905084 0.554489 0.512227 0.175632
C59   C     C_3   0.073075 0.212591 0.503998 -0.347489
C60   C     C_3   0.997251 0.230998 0.454795 -0.793670
H42   H     H_    0.963556 0.132240 0.482708 0.239105
H43   H     H_    0.979900 0.371959 0.460062 0.239565
H44   H     H_    0.990685 0.201896 0.374216 0.227222
H45   H     H_    0.099463 0.317649 0.466988 0.181393
H46   H     H_    0.087972 0.075575 0.482836 0.183134
C61   C     C_3   0.184409 0.212742 0.232666 -0.332207
C62   C     C_3   0.128955 0.215157 0.292189 -0.713657
H47   H     H_    0.085521 0.120911 0.262388 0.236230
H48   H     H_    0.152504 0.169796 0.368114 0.200623
H49   H     H_    0.109351 0.356797 0.294067 0.213014
H50   H     H_    0.222992 0.317837 0.266960 0.152412
H51   H     H_    0.166342 0.262466 0.155583 0.191185
C63   C     C_3   0.806261 0.720586 0.806355 -0.333850
C64   C     C_3   0.805952 0.752424 0.916778 -0.643392
H52   H     H_    0.845018 0.858359 0.946744 0.205880
H53   H     H_    0.817202 0.628620 0.963986 0.218552
H54   H     H_    0.755385 0.793239 0.927244 0.183810
H55   H     H_    0.857535 0.745742 0.790155 0.189793
H56   H     H_    0.773684 0.825845 0.761707 0.145370

loop_
_geom_bond_atom_site_label_1
_geom_bond_atom_site_label_2
_ccdc_geom_bond_type
C36   C38   A    
C42   H14   S    
C49   C50   S    
C39   C41   A    
C53   H25   S    
C9    C11   A    
C23   C25   A    
C52   H20   S    
O1    C3    A    
C46   O17   A    
O2    C4    A    
C2    O7    A    
O12   V3    S    
C52   H22   S    
O3    V1    S    
C21   C23   A    
H4    C24   S    
O5    C3    A    
C54   H29   S    
C5    H5    S    
O14   C46   A    
C59   H45   S    
C6    H6    S    
C2    C37   S    
C63   H55   S    
C55   H32   S    
C64   H54   S    
H1    C29   S    
C35   H11   S    
C27   H7    S    
C36   H12   S    
C28   H8    S    
C5    C21   A    
C37   C39   A    
C44   C47   S    
C6    C22   A    
C58   H37   S    
O18   V4    S    
C43   C48   S    
C10   C32   A    
C25   H9    S    
C62   H47   S    
C41   H13   S    
C17   C31   A    
C60   H44   S    
C38   C40   A    
C13   C15   A    
C51   H24   S    
C14   C56   S    
C12   C14   A    
C17   C25   A    
C45   O18   A    
C7    C29   A    
C8    C30   A    
C56   H36   S    
O16   V4    S    
C22   C24   A    
O15   V3    S    
O6    V2    S    
C49   H18   S    
O13   C45   A    
C24   C26   A    
C19   C21   A    
C54   H30   S    
O20   V3    S    
O4    C2    A    
C61   H50   S    
C55   H33   S    
C3    C8    S    
C11   C57   S    
C9    C53   S    
C15   C19   A    
C58   H39   S    
C40   C42   A    
O4    V2    S    
C57   H40   S    
C61   H51   S    
O11   V4    S    
C34   C63   S    
O16   C48   A    
C50   H17   S    
O15   C47   A    
C10   C54   S    
O6    C4    A    
C13   C55   S    
C31   C46   S    
C59   H46   S    
O1    V2    S    
C33   C43   A    
O14   V4    S    
O2    V1    S    
O13   V3    S    
H2    C30   S    
H3    C23   S    
C62   H48   S    
C12   C59   S    
C53   H27   S    
C33   C61   S    
C33   C35   A    
C60   H42   S    
C18   C26   A    
C19   C27   A    
C61   C62   S    
C7    C27   A    
O17   V3    S    
C18   C32   A    
C56   H34   S    
C39   C49   S    
C16   C20   A    
C5    C29   A    
C50   H16   S    
O3    C1    A    
C6    C30   A    
C64   H52   S    
C52   H21   S    
C35   C37   A    
C54   H28   S    
C34   C44   A    
C4    C7    S    
C10   C12   A    
C57   H41   S    
C40   C51   S    
C1    O8    A    
C11   C13   A    
O8    V2    S    
C32   C45   S    
C20   C22   A    
C64   H53   S    
C42   C44   A    
C51   H23   S    
C62   H49   S    
C41   C43   A    
C49   H19   S    
O5    V1    S    
C15   C17   A    
C34   C36   A    
C1    C38   S    
C16   C18   A    
O7    V1    S    
C51   C52   S    
C58   H38   S    
C20   C28   A    
C63   C64   S    
C8    C28   A    
C26   H10   S    
O19   V4    S    
C50   H15   S    
C53   H26   S    
O9    V2    S    
C55   H31   S    
C60   H43   S    
O10   V1    S    
C63   H56   S    
C56   H35   S    
C57   C58   S    
O12   C48   A    
C9    C31   A    
C14   C16   A    
C59   C60   S    
O11   C47   A    
