data_str_m2_o10_o28_f0_pcu.sym.163
_audit_creation_date              2012-12-10T16:50:10-0500
_audit_creation_method            fapswitch 2.2
_symmetry_space_group_name_H-M    P1
_symmetry_Int_Tables_number       1
_space_group_crystal_system       triclinic
_cell_length_a                    23.486793
_cell_length_b                    8.674579
_cell_length_c                    7.541079
_cell_angle_alpha                 103.199267
_cell_angle_beta                  95.295066
_cell_angle_gamma                 93.61805
_cell_volume                      1483.80688017

loop_
_atom_site_label
_atom_site_type_symbol
_atom_type_description
_atom_site_fract_x
_atom_site_fract_y
_atom_site_fract_z
_atom_type_partial_charge
C1    C     C_R   0.498181 0.199871 0.453085 0.872678
C2    C     C_R   0.501822 0.800129 0.546914 0.872625
C3    C     C_R   0.232621 0.450029 0.339614 -0.104395
C4    C     C_R   0.767385 0.550415 0.660321 -0.104376
C5    C     C_R   0.291881 0.450296 0.338004 -0.196712
C6    C     C_R   0.708124 0.550086 0.661945 -0.196706
C7    C     C_R   0.328515 0.500211 0.502338 -0.046533
C8    C     C_R   0.671485 0.499888 0.497656 -0.046538
C9    C     C_R   0.304765 0.550624 0.668171 -0.181546
C10   C     C_R   0.695229 0.449291 0.331848 -0.181549
C11   C     C_R   0.245445 0.550404 0.669458 -0.097418
C12   C     C_R   0.754550 0.449563 0.330546 -0.097353
C13   C     C_R   0.209238 0.499927 0.505218 0.349825
C14   C     C_R   0.790765 0.500297 0.494746 0.349699
C15   C     C_2   0.497252 0.031439 0.427336 -0.354681
C16   C     C_2   0.502756 0.968561 0.572658 -0.354668
C17   C     C_R   0.391102 0.499781 0.500661 0.793305
C18   C     C_R   0.608898 0.500244 0.499340 0.793245
C19   C     C_R   0.884637 0.642303 0.532176 0.535598
C20   C     C_R   0.115366 0.357928 0.467757 0.535619
C21   C     C_R   0.875747 0.358113 0.457107 0.537788
C22   C     C_R   0.124259 0.642118 0.542877 0.537799
C23   C     C_R   0.935398 0.355072 0.458442 -0.013177
C24   C     C_R   0.064607 0.645160 0.541527 -0.013190
C25   C     C_R   0.969936 0.500141 0.498480 -0.017274
C26   C     C_R   0.030068 0.500091 0.501477 -0.017274
C27   C     C_R   0.944488 0.645259 0.535628 -0.013213
C28   C     C_R   0.055516 0.354973 0.464318 -0.013226
C29   C     C_R   0.961216 0.211042 0.421678 -0.161249
C30   C     C_R   0.038788 0.789190 0.578288 -0.161244
C31   C     C_R   0.020677 0.210989 0.424601 -0.175139
C32   C     C_R   0.979327 0.789242 0.575348 -0.175140
Cu1   Cu    Cu3+1 0.506340 0.517380 0.684380 0.972440
Cu2   Cu    Cu3+1 0.493660 0.482620 0.315620 0.972348
H1    H     H_    0.935593 0.097989 0.390431 0.195609
H2    H     H_    0.064411 0.902244 0.609542 0.195606
H3    H     H_    0.039195 0.097895 0.395341 0.186376
H4    H     H_    0.960809 0.902336 0.604602 0.186375
H5    H     H_    0.204787 0.411350 0.212151 0.149207
H6    H     H_    0.795225 0.589307 0.787748 0.149299
H7    H     H_    0.308858 0.410295 0.208398 0.208932
H8    H     H_    0.691148 0.590270 0.791516 0.208929
H9    H     H_    0.331955 0.591638 0.796541 0.192883
H10   H     H_    0.668033 0.408089 0.203516 0.192762
H11   H     H_    0.227556 0.589350 0.797925 0.147153
H12   H     H_    0.772437 0.410452 0.202104 0.147237
H13   H     H_    0.491998 0.958940 0.287764 0.169370
H14   H     H_    0.508011 0.041060 0.712230 0.169355
N1    N     N_R   0.851722 0.500227 0.493830 -0.473379
N2    N     N_R   0.148281 0.500003 0.506128 -0.473403
N3    N     N_2   0.484110 0.456420 0.038520 -0.210753
N4    N     N_2   0.515890 0.543580 0.961480 -0.210690
O1    O     O_R   0.504120 0.286130 0.619770 -0.609245
O2    O     O_R   0.495880 0.713870 0.380230 -0.609267
O3    O     O_R   0.493410 0.256770 0.308360 -0.595678
O4    O     O_R   0.506590 0.743230 0.691640 -0.595638
O5    O     O_R   0.423230 0.514630 0.655730 -0.606314
O6    O     O_R   0.576770 0.485370 0.344270 -0.606448
O7    O     O_R   0.412530 0.485280 0.344320 -0.544379
O8    O     O_R   0.587470 0.514720 0.655680 -0.544252
O9    O     O_2   0.859437 0.780072 0.565914 -0.513976
O10   O     O_2   0.140566 0.220159 0.433977 -0.513936
O11   O     O_2   0.842016 0.220390 0.421168 -0.511074
O12   O     O_2   0.157992 0.779839 0.578862 -0.511039
C33   C     C_2   0.434596 0.367642 0.934471 0.696799
H15   H     H_    0.437858 0.267398 0.822426 0.021311
O13   O     O_2   0.387082 0.398456 0.976995 -0.603110
C34   C     C_2   0.565425 0.632266 0.065508 0.696444
H16   H     H_    0.562194 0.732332 0.177781 0.021571
O14   O     O_2   0.612926 0.601513 0.022794 -0.603005

loop_
_geom_bond_atom_site_label_1
_geom_bond_atom_site_label_2
_ccdc_geom_bond_type
C30   C32   A    
C30   H2    S    
C20   O10   S    
C4    H6    S    
C1    C15   S    
C32   H4    S    
C25   C27   A    
C2    C16   S    
C29   H1    S    
C26   C28   A    
N4    C34   S    
C10   H10   S    
C15   H13   S    
C22   N2    A    
C16   H14   S    
Cu1   O4    S    
C21   N1    A    
Cu1   Cu2   S    
C1    O3    A    
C3    H5    S    
Cu2   O3    S    
C29   C31   A    
C4    C14   A    
C2    O4    A    
Cu1   N4    S    
C1    O1    A    
C9    C11   A    
Cu2   N3    S    
C10   C12   A    
C17   O7    A    
C20   N2    A    
C6    C8    A    
C23   C29   A    
C18   O8    A    
C19   C27   A    
C24   C26   A    
Cu2   O2    S    
Cu1   O8    S    
C24   C30   A    
C23   C25   A    
C21   C23   A    
Cu1   O1    S    
Cu2   O7    S    
C19   O9    S    
Cu2   O6    S    
C22   C24   A    
C19   N1    A    
C9    H9    S    
C2    O2    A    
C11   H11   S    
C15   C16   D    
C27   C32   A    
C22   O12   S    
C13   N2    S    
C14   N1    S    
C7    C9    A    
C11   C13   A    
N3    N4    D    
C8    C10   A    
C4    C6    A    
N3    C33   S    
C17   O5    A    
C5    C7    A    
C34   O14   D    
C5    H7    S    
Cu1   O5    S    
C33   O13   D    
C20   C28   A    
C7    C17   S    
C25   C26   A    
C6    H8    S    
C33   H15   S    
C18   O6    A    
C28   C31   A    
C8    C18   S    
C31   H3    S    
C21   O11   S    
C12   C14   A    
C34   H16   S    
C3    C5    A    
C12   H12   S    
C3    C13   A    
