data_str_m3_o4_o5_f0_pcu.sym.99
_audit_creation_date              2013-03-05T16:45:23-0500
_audit_creation_method            fapswitch 2.2
_symmetry_space_group_name_H-M    P1
_symmetry_Int_Tables_number       1
_space_group_crystal_system       triclinic
_cell_length_a                    8.906305
_cell_length_b                    10.713245
_cell_length_c                    9.895399
_cell_angle_alpha                 89.418876
_cell_angle_beta                  89.758503
_cell_angle_gamma                 90.177527
_cell_volume                      944.112117606

loop_
_atom_site_label
_atom_site_type_symbol
_atom_site_description
_atom_site_fract_x
_atom_site_fract_y
_atom_site_fract_z
_atom_type_partial_charge
O1    O     O_R   0.500020 0.316790 0.614690 -0.617433
O2    O     O_R   0.500000 0.316760 0.385350 -0.632470
C1    C     C_R   0.502807 0.260032 0.500420 0.933628
O3    O     O_R   0.285350 0.500020 0.614650 -0.618034
O4    O     O_R   0.285340 0.499980 0.385310 -0.584001
C2    C     C_R   0.218807 0.499862 0.500164 0.962275
Zn1   Zn    Zn3+2 0.500010 0.500020 0.653130 0.966202
Zn2   Zn    Zn3+2 0.499990 0.499980 0.346870 1.026593
O5    O     O_R   0.500000 0.683240 0.614650 -0.620683
O6    O     O_R   0.499980 0.683210 0.385310 -0.621268
O7    O     O_R   0.714660 0.500020 0.614690 -0.636265
O8    O     O_R   0.714650 0.499980 0.385350 -0.536149
C3    C     C_R   0.504989 0.739726 0.499450 0.859471
C4    C     C_R   0.781210 0.500047 0.499828 0.921635
C5    C     C_1   0.065433 0.499893 0.500250 -0.106813
C6    C     C_1   0.934593 0.499959 0.499718 -0.114223
C7    C     C_R   0.512559 0.060986 0.621643 0.031947
C8    C     C_R   0.520463 0.128202 0.500727 -0.037869
C9    C     C_R   0.554542 0.065998 0.380061 -0.173468
H1    H     H_    0.570856 0.116113 0.285466 0.170120
C10   C     C_R   0.556442 0.936706 0.379346 -0.201100
H2    H     H_    0.572181 0.889189 0.284336 0.162354
C11   C     C_R   0.526614 0.870972 0.499717 -0.057720
C12   C     C_R   0.520579 0.934151 0.621595 0.061534
C13   C     C_3   0.417427 0.918875 0.740070 -0.481649
C14   C     C_3   0.405512 0.060299 0.739885 0.130708
H3    H     H_    0.311540 0.869352 0.714026 0.226585
H4    H     H_    0.476591 0.880934 0.830207 0.179506
H5    H     H_    0.454120 0.103453 0.831461 0.089914
C15   C     C_R   0.371528 0.475057 0.071943 0.055774
N1    N     N_R   0.499010 0.499140 0.142800 -0.176385
C16   C     C_R   0.621023 0.543361 0.071094 0.564445
C17   C     C_R   0.621916 0.539275 0.926561 -0.228337
H6    H     H_    0.721498 0.566517 0.870751 0.177460
N2    N     N_R   0.499010 0.499180 0.857150 -0.125985
C18   C     C_R   0.371037 0.476480 0.929685 0.127582
C19   C     C_3   0.277141 0.361560 0.923785 -0.452378
C20   C     C_3   0.280078 0.358194 0.077659 0.115046
H7    H     H_    0.164949 0.379972 0.879068 0.245736
H8    H     H_    0.339294 0.283927 0.877510 0.194286
H9    H     H_    0.341287 0.276866 0.121240 0.120203
N3    N     N_R   0.132181 0.377654 0.138612 0.253338
O9    O     O_R   0.080962 0.297970 0.227607 -0.357168
O10   O     O_R   0.051478 0.474472 0.106225 -0.361982
N4    N     N_R   0.251775 0.101041 0.710167 0.220420
O11   O     O_R   0.149767 0.091345 0.804179 -0.388085
O12   O     O_R   0.212542 0.139753 0.590357 -0.386784
O13   O     O_3   0.745884 0.583941 0.140715 -0.534568
C21   C     C_3   0.781712 0.707871 0.102493 -0.222675
H10   H     H_    0.853225 0.748948 0.182254 0.199018
H11   H     H_    0.680244 0.767984 0.092834 0.108674
H12   H     H_    0.847708 0.709614 0.006951 0.169036

loop_
_geom_bond_atom_site_label_1
_geom_bond_atom_site_label_2
_geom_bond_distance
_ccdc_geom_bond_type
C7    C8    1.391628 A    
O4    Zn2   1.947639 S    
C11   C12   1.389875 A    
C19   C20   1.523051 S    
C13   H3    1.113106 S    
C9    H1    1.083387 S    
C15   C18   1.407651 A    
Zn2   O8    1.950951 S    
C21   H12   1.111111 S    
C16   C17   1.431319 A    
C21   H11   1.115184 S    
N4    O12   1.301572 A    
O2    C1    1.285619 A    
C2    C5    1.365993 S    
C20   H9    1.113374 S    
C19   H7    1.111896 S    
O1    Zn1   2.003286 S    
C10   H2    1.082467 S    
C13   H4    1.111918 S    
Zn1   O7    1.947640 S    
C16   O13   1.381963 S    
C15   C20   1.491942 S    
C15   N1    1.362310 A    
N3    O10   1.301921 A    
C1    C8    1.421512 S    
O3    Zn1   1.950951 S    
O13   C21   1.412020 S    
C7    C14   1.506125 S    
O3    C2    1.280763 A    
C18   C19   1.487951 S    
C9    C10   1.385384 A    
O8    C4    1.280758 A    
C20   N3    1.462825 S    
C19   H8    1.102844 S    
C10   C11   1.401590 A    
O4    C2    1.279502 A    
O7    C4    1.279647 A    
C4    C6    1.366071 S    
C7    C12   1.360917 A    
N3    O9    1.300515 A    
C5    C6    1.165338 T    
C17   H6    1.080634 S    
C12   C13   1.493766 S    
C3    C11   1.418641 S    
C14   H5    1.110346 S    
Zn2   O6    2.003286 S    
C21   H10   1.109868 S    
Zn1   O5    1.995677 S    
O5    C3    1.285716 A    
C8    C9    1.405811 A    
C14   N4    1.468432 S    
C17   N2    1.365255 A    
C13   C14   1.519126 S    
N4    O11   1.300753 A    
Zn2   N1    2.019521 S    
Zn1   N2    2.018770 S    
O6    C3    1.287789 A    
O2    Zn2   1.995679 S    
N1    C16   1.375602 A    
O1    C1    1.289475 A    
N2    C18   1.364272 A    
