data_str_m3_o10_o29_f0_pcu.sym.225
_audit_creation_date              2012-12-10T16:59:18-0500
_audit_creation_method            fapswitch 2.2
_symmetry_space_group_name_H-M    P1
_symmetry_Int_Tables_number       1
_space_group_crystal_system       triclinic
_cell_length_a                    7.71092
_cell_length_b                    8.581237
_cell_length_c                    27.709068
_cell_angle_alpha                 91.083402
_cell_angle_beta                  86.610248
_cell_angle_gamma                 93.489249
_cell_volume                      1826.67135985

loop_
_atom_site_label
_atom_site_type_symbol
_atom_type_description
_atom_site_fract_x
_atom_site_fract_y
_atom_site_fract_z
_atom_type_partial_charge
C1    C     C_R   0.545284 0.794449 0.498690 0.915571
C2    C     C_R   0.454716 0.205550 0.501310 0.915570
C3    C     C_R   0.521241 0.487641 0.897797 -0.087165
C4    C     C_R   0.478761 0.512358 0.102203 -0.087165
C5    C     C_R   0.587389 0.619958 0.871663 -0.002152
C6    C     C_R   0.412613 0.380041 0.128337 -0.002152
C7    C     C_R   0.653057 0.752155 0.896042 -0.160811
C8    C     C_R   0.346945 0.247844 0.103958 -0.160811
C9    C     C_R   0.464402 0.350529 0.872585 -0.094932
C10   C     C_R   0.535600 0.649470 0.127415 -0.094933
C11   C     C_R   0.511086 0.489310 0.646376 -0.113828
C12   C     C_R   0.488914 0.510689 0.353624 -0.113827
C13   C     C_R   0.551905 0.640354 0.024853 -0.002222
C14   C     C_R   0.448097 0.359645 0.975147 -0.002222
C15   C     C_R   0.431477 0.367450 0.026365 0.070465
C16   C     C_R   0.568525 0.632549 0.973635 0.070465
C17   C     C_R   0.487893 0.506705 0.050965 0.073974
C18   C     C_R   0.512109 0.493293 0.949035 0.073974
C19   C     C_R   0.592167 0.779842 0.050794 -0.267176
C20   C     C_R   0.407835 0.220157 0.949206 -0.267176
C21   C     C_R   0.589375 0.785564 0.101284 0.245868
C22   C     C_R   0.410627 0.214435 0.898716 0.245868
C23   C     C_R   0.503163 0.496389 0.593900 0.861060
C24   C     C_R   0.496837 0.503611 0.406100 0.861061
C25   C     C_R   0.645260 0.758250 0.945985 -0.237305
C26   C     C_R   0.354742 0.241749 0.054015 -0.237305
C27   C     C_2   0.563808 0.955435 0.490583 -0.030951
C28   C     C_2   0.436192 0.044565 0.509417 -0.030951
C29   C     C_R   0.587986 0.616876 0.821344 0.507401
C30   C     C_R   0.412015 0.383123 0.178656 0.507401
C31   C     C_R   0.463581 0.355349 0.821743 0.516227
C32   C     C_R   0.536420 0.644650 0.178257 0.516227
C33   C     C_R   0.647880 0.414538 0.718295 -0.133435
C34   C     C_R   0.352118 0.585459 0.281705 -0.133436
C35   C     C_R   0.645092 0.413127 0.667747 0.183570
C36   C     C_R   0.354906 0.586870 0.332253 0.183570
C37   C     C_R   0.383855 0.562459 0.675483 -0.263324
C38   C     C_R   0.616147 0.437542 0.324517 -0.263325
C39   C     C_R   0.389045 0.562361 0.725356 -0.103096
C40   C     C_R   0.610957 0.437640 0.274644 -0.103095
C41   C     C_R   0.520891 0.488787 0.746587 0.279623
C42   C     C_R   0.479110 0.511212 0.253412 0.279624
H1    H     H_    0.281352 0.621585 0.659604 0.175914
H2    H     H_    0.718651 0.378418 0.340396 0.175914
H3    H     H_    0.014319 0.383378 0.463451 0.200290
H4    H     H_    0.985681 0.616622 0.536549 0.200290
H5    H     H_    0.290611 0.619193 0.747627 0.150566
H6    H     H_    0.709392 0.380809 0.252373 0.150565
H7    H     H_    0.711342 0.852337 0.876570 0.182180
H8    H     H_    0.288659 0.147662 0.123429 0.182180
H9    H     H_    0.254185 0.643703 0.263662 0.150455
H10   H     H_    0.745813 0.356293 0.736337 0.150455
H11   H     H_    0.620037 0.888563 0.032584 0.153118
H12   H     H_    0.379965 0.111436 0.967416 0.153118
H13   H     H_    0.704038 0.862941 0.961604 0.143066
H14   H     H_    0.295964 0.137058 0.038396 0.143066
N1    N     N_R   0.524333 0.486971 0.797838 -0.352274
N2    N     N_R   0.475668 0.513028 0.202162 -0.352274
N3    N     N_2   0.950320 0.457960 0.486880 -0.166770
N4    N     N_2   0.049680 0.542040 0.513120 -0.166770
O1    O     O_R   0.389250 0.738570 0.503220 -0.588562
O2    O     O_R   0.610750 0.261430 0.496780 -0.588562
O3    O     O_R   0.678390 0.711630 0.494810 -0.644190
O4    O     O_R   0.321610 0.288370 0.505190 -0.644190
O5    O     O_R   0.355440 0.513440 0.575450 -0.612283
O6    O     O_R   0.644560 0.486560 0.424550 -0.612285
O7    O     O_R   0.644590 0.486500 0.567040 -0.612257
O8    O     O_R   0.355410 0.513500 0.432960 -0.612256
O9    O     O_2   0.650523 0.742886 0.795900 -0.561146
O10   O     O_2   0.349479 0.257113 0.204100 -0.561146
O11   O     O_2   0.599978 0.768304 0.203908 -0.534327
O12   O     O_2   0.400023 0.231695 0.796091 -0.534328
Zn1   Zn    Zn3+2 0.306940 0.517990 0.505620 0.955415
Zn2   Zn    Zn3+2 0.693060 0.482010 0.494380 0.955414
N5    N     N_2   0.231132 0.669266 0.361825 -0.289393
H15   H     H_    0.284617 0.754975 0.383990 0.229649
C43   C     C_3   0.066593 0.703725 0.343074 -0.744492
H16   H     H_    0.976878 0.741390 0.373315 0.245125
H17   H     H_    0.005335 0.597874 0.325823 0.247945
H18   H     H_    0.086110 0.799959 0.316700 0.241932
N6    N     N_2   0.768865 0.330729 0.638175 -0.289393
H19   H     H_    0.715377 0.245023 0.616008 0.229650
C44   C     C_3   0.933400 0.296262 0.656926 -0.744494
H20   H     H_    0.023114 0.258594 0.626686 0.245123
H21   H     H_    0.913877 0.200027 0.683300 0.241932
H22   H     H_    0.994663 0.402110 0.674177 0.247947
N7    N     N_2   0.629126 0.930013 0.125995 -0.247305
H23   H     H_    0.523469 0.978750 0.143558 0.261253
C45   C     C_3   0.759412 0.040886 0.104683 -0.739887
H24   H     H_    0.803949 0.124564 0.133060 0.254685
H25   H     H_    0.703449 0.108154 0.076139 0.223916
H26   H     H_    0.873827 0.979914 0.089400 0.240555
N8    N     N_2   0.370876 0.069986 0.874005 -0.247305
H27   H     H_    0.476533 0.021248 0.856442 0.261253
C46   C     C_3   0.240590 0.959112 0.895317 -0.739886
H28   H     H_    0.196053 0.875435 0.866940 0.254685
H29   H     H_    0.126175 0.020085 0.910600 0.240555
H30   H     H_    0.296554 0.891844 0.923861 0.223916
N9    N     N_2   0.698718 0.011632 0.456314 -0.295231
H31   H     H_    0.815509 0.960623 0.458864 0.236598
C47   C     C_3   0.647042 0.014133 0.406970 -0.764383
H32   H     H_    0.755737 0.066975 0.383455 0.244114
H33   H     H_    0.532482 0.085463 0.404454 0.235999
H34   H     H_    0.614792 0.893332 0.393714 0.222369
N10   N     N_2   0.301282 0.988368 0.543686 -0.295231
H35   H     H_    0.184491 0.039377 0.541136 0.236598
C48   C     C_3   0.352958 0.985867 0.593029 -0.764386
H36   H     H_    0.244263 0.933025 0.616545 0.244114
H37   H     H_    0.385207 0.106668 0.606286 0.222369
H38   H     H_    0.467518 0.914538 0.595546 0.235999

loop_
_geom_bond_atom_site_label_1
_geom_bond_atom_site_label_2
_ccdc_geom_bond_type
N7    H23   S    
C21   N7    S    
N8    H27   S    
C8    C26   A    
C14   C18   A    
C46   H28   S    
C34   C42   A    
C32   N2    A    
C42   N2    S    
N6    H19   S    
C35   N6    S    
C46   H30   S    
C39   C41   A    
C43   H16   S    
C33   H10   S    
N10   C48   S    
C27   N9    S    
C34   H9    S    
C47   H32   S    
C19   C21   A    
C33   C35   A    
C9    C22   A    
O6    Zn2   S    
N4    Zn1   S    
O5    Zn1   S    
C3    C18   A    
C40   H6    S    
C23   O7    A    
C11   C37   A    
C30   O10   S    
C44   H20   S    
C48   H36   S    
C12   C36   A    
C29   O9    S    
C24   O6    A    
C19   H11   S    
C40   C42   A    
N3    N4    D    
C47   H33   S    
C48   H37   S    
C1    O3    A    
N6    C44   S    
C2    O4    A    
C32   O11   S    
C5    C29   A    
C43   H17   S    
C10   C21   A    
C13   C19   A    
C14   C20   A    
C7    H7    S    
C20   H12   S    
C5    C7    A    
C9    C31   A    
C15   C26   A    
C6    C8    A    
O1    Zn1   S    
O8    Zn1   S    
C6    C30   A    
C1    O1    A    
C37   H1    S    
N5    H15   S    
C38   H2    S    
C3    C9    A    
C36   N5    S    
N9    H31   S    
C28   N10   S    
O4    Zn1   S    
O7    Zn2   S    
C45   H26   S    
N5    C43   S    
N3    Zn2   S    
C4    C17   A    
C4    C6    A    
C31   O12   S    
C44   H21   S    
C29   N1    A    
C47   H34   S    
N7    C45   S    
C22   N8    S    
C45   H25   S    
C4    C10   A    
C8    H8    S    
C39   H5    S    
C43   H18   S    
C16   C25   A    
C15   C17   A    
H3    N3    S    
H4    N4    S    
C16   C18   A    
C25   H13   S    
C20   C22   A    
C3    C5    A    
C26   H14   S    
C46   H29   S    
O3    Zn2   S    
N10   H35   S    
C12   C24   S    
C7    C25   A    
C13   C17   A    
C33   C41   A    
C23   O5    A    
C11   C35   A    
C41   N1    S    
C37   C39   A    
C38   C40   A    
C31   N1    A    
C30   N2    A    
C11   C23   S    
C48   H38   S    
C34   C36   A    
C12   C38   A    
C24   O8    A    
C10   C32   A    
C44   H22   S    
N8    C46   S    
C13   C16   A    
C27   C28   D    
C1    C27   S    
C14   C15   A    
O2    Zn2   S    
C2    C28   S    
C45   H24   S    
N9    C47   S    
C2    O2    A    
