data_str_m9_o13_o2_f0_sra.sym.116
_audit_creation_date              2013-03-05T15:46:30-0500
_audit_creation_method            fapswitch 2.2
_symmetry_space_group_name_H-M    P1
_symmetry_Int_Tables_number       1
_space_group_crystal_system       triclinic
_cell_length_a                    6.958401
_cell_length_b                    16.703124
_cell_length_c                    17.144007
_cell_angle_alpha                 100.203052
_cell_angle_beta                  90.708825
_cell_angle_gamma                 89.831108
_cell_volume                      1960.93586372

loop_
_atom_site_label
_atom_site_type_symbol
_atom_site_description
_atom_site_fract_x
_atom_site_fract_y
_atom_site_fract_z
_atom_type_partial_charge
O1    O     O_R   0.506180 0.438940 0.579430 -0.552442
O2    O     O_R   0.170520 0.406230 0.413590 -0.599531
O3    O     O_R   0.005180 0.561060 0.420570 -0.608476
C1    C     C_R   0.339368 0.383102 0.385026 1.006530
O4    O     O_R   0.176140 0.429310 0.578370 -0.532613
O5    O     O_R   0.010830 0.584300 0.586530 -0.560113
C2    C     C_R   0.345452 0.415633 0.606903 1.194627
O6    O     O_R   0.500520 0.415700 0.413470 -0.582511
O7    O     O_3   0.340830 0.550820 0.502480 -0.305122
V1    V     V_3+5 0.064040 0.490570 0.499540 1.275071
O8    O     O_R   0.681400 0.593770 0.586410 -0.593558
C3    C     C_R   0.850102 0.614783 0.616655 1.036512
O9    O     O_R   0.675790 0.570690 0.421630 -0.621174
C4    C     C_R   0.841815 0.586651 0.395019 0.902087
V2    V     V_3+5 0.564650 0.509430 0.500460 1.243502
O10   O     O_3   0.837730 0.449180 0.497520 -0.230465
C5    C     C_R   0.930124 0.860608 0.166528 -0.121260
C6    C     C_R   0.835813 0.640500 0.334336 -0.116417
C7    C     C_R   0.643436 0.701881 0.239740 -0.186879
C8    C     C_R   0.663422 0.646287 0.291299 -0.162767
C9    C     C_R   0.990139 0.691205 0.323289 -0.286840
C10   C     C_R   0.970031 0.748106 0.271797 0.234893
C11   C     C_R   0.794785 0.753946 0.230070 0.235958
C12   C     C_R   0.774738 0.810820 0.178543 -0.219871
C13   C     C_R   0.102842 0.854535 0.209249 -0.133783
C14   C     C_R   0.122030 0.799622 0.261522 -0.214507
H1    H     H_    0.641693 0.813924 0.145624 0.137812
H2    H     H_    0.225765 0.891822 0.201571 0.123884
H3    H     H_    0.508731 0.704503 0.207887 0.146958
H4    H     H_    0.257030 0.796749 0.293102 0.118403
H5    H     H_    0.541381 0.608209 0.298189 0.132812
H6    H     H_    0.123103 0.688129 0.356272 0.135880
C15   C     C_R   0.911865 0.909646 0.721369 -0.190995
C16   C     C_R   0.908470 0.924244 0.643864 -0.105206
C17   C     C_R   0.891560 0.859813 0.580682 -0.099438
C18   C     C_R   0.877008 0.780340 0.594536 -0.165421
C19   C     C_R   0.879031 0.763377 0.672710 0.115978
C20   C     C_R   0.897727 0.829593 0.737311 0.120780
C21   C     C_R   0.860758 0.682252 0.686654 -0.285210
C22   C     C_R   0.860049 0.667428 0.766794 -0.025244
C23   C     C_R   0.890695 0.734545 0.830639 0.068648
C24   C     C_R   0.903742 0.815195 0.816097 -0.241441
C25   C     C_R   0.825529 0.589185 0.787700 0.336609
C26   C     C_R   0.832974 0.579611 0.867348 -0.184100
C27   C     C_R   0.880612 0.643437 0.927863 0.386139
C28   C     C_R   0.906235 0.720454 0.909468 -0.298507
H7    H     H_    0.926420 0.961774 0.768547 0.105607
H8    H     H_    0.919411 0.985899 0.632806 0.121126
H9    H     H_    0.889302 0.871428 0.520516 0.114026
H10   H     H_    0.863157 0.732628 0.543134 0.082508
H11   H     H_    0.807915 0.519937 0.881746 0.200029
H12   H     H_    0.936924 0.769618 0.958107 0.152081
H13   H     H_    0.637577 0.483296 0.164874 0.160688
C29   C     C_R   0.204242 0.212424 0.389320 0.363835
C30   C     C_R   0.112580 0.137433 0.386218 -0.172640
C31   C     C_R   0.125912 0.077749 0.319645 -0.213765
C32   C     C_R   0.231513 0.091969 0.255562 -0.155063
C33   C     C_R   0.308944 0.169873 0.252563 0.108904
C34   C     C_R   0.288139 0.233291 0.319878 -0.037565
C35   C     C_R   0.410371 0.183765 0.184626 -0.287830
C36   C     C_R   0.476975 0.263094 0.181065 0.128032
C37   C     C_R   0.446297 0.328087 0.245870 0.126623
C38   C     C_R   0.355135 0.313703 0.316182 -0.290645
C39   C     C_R   0.566466 0.280201 0.112046 -0.202962
C40   C     C_R   0.625529 0.358660 0.106992 -0.070950
C41   C     C_R   0.594106 0.422147 0.169552 -0.073751
C42   C     C_R   0.504336 0.407555 0.237798 -0.197303
H14   H     H_    0.046035 0.122216 0.438478 0.163132
H15   H     H_    0.064375 0.018276 0.319648 0.142536
H16   H     H_    0.251770 0.040234 0.209024 0.129345
H17   H     H_    0.589450 0.233781 0.060532 0.126329
H18   H     H_    0.693531 0.370448 0.053695 0.149131
H19   H     H_    0.478424 0.459855 0.283339 0.108438
C43   C     C_R   0.414808 0.137557 0.832866 -0.127979
C44   C     C_R   0.352462 0.367434 0.672941 -0.240645
C45   C     C_R   0.240242 0.340599 0.800636 -0.296625
C46   C     C_R   0.262725 0.395203 0.747158 0.433019
C47   C     C_R   0.452855 0.292914 0.663171 -0.158295
C48   C     C_R   0.439601 0.240878 0.719100 0.163720
C49   C     C_R   0.325886 0.263476 0.786967 0.152194
C50   C     C_R   0.310959 0.210992 0.842862 -0.225813
C51   C     C_R   0.529892 0.116352 0.765581 -0.158852
C52   C     C_R   0.540186 0.166837 0.708719 -0.152563
H20   H     H_    0.226567 0.228956 0.895848 0.125589
H21   H     H_    0.612697 0.060516 0.757195 0.121123
H22   H     H_    0.164983 0.360239 0.855701 0.177551
H23   H     H_    0.629474 0.148561 0.657266 0.130978
H24   H     H_    0.544580 0.275419 0.612797 0.198884
O11   O     O_R   0.265840 0.084300 0.086750 -0.595977
O12   O     O_R   0.589750 0.070740 0.921690 -0.598175
O13   O     O_R   0.755020 0.915730 0.913400 -0.586247
C53   C     C_R   0.420482 0.086603 0.895468 0.926922
O14   O     O_R   0.595830 0.093740 0.086480 -0.591968
O15   O     O_R   0.761150 0.938890 0.079360 -0.594949
C54   C     C_R   0.426611 0.116724 0.114639 0.925916
O16   O     O_R   0.259710 0.061140 0.920790 -0.591555
O17   O     O_3   0.425260 0.949200 0.997610 -0.267029
V3    V     V_3+5 0.702060 0.009430 0.000450 1.165473
O18   O     O_R   0.090530 0.929220 0.078150 -0.599656
C55   C     C_R   0.924533 0.913636 0.105132 0.939379
O19   O     O_R   0.084440 0.906220 0.913360 -0.583515
C56   C     C_R   0.915395 0.884830 0.883912 0.934322
V4    V     V_3+5 0.201450 0.990520 0.999290 1.174443
O20   O     O_3   0.928380 0.050800 0.002390 -0.274946
N1    N     N_R   0.767199 0.518812 0.732119 0.218203
O21   O     O_R   0.625078 0.477064 0.751862 -0.424040
O22   O     O_R   0.890791 0.480094 0.683284 -0.388283
N2    N     N_R   0.247087 0.257408 0.466057 0.199486
O23   O     O_R   0.426872 0.271895 0.484291 -0.490870
O24   O     O_R   0.122308 0.260929 0.522515 -0.431357
N3    N     N_R   0.224897 0.480554 0.775433 0.249619
O25   O     O_R   0.208511 0.506456 0.851243 -0.402985
O26   O     O_R   0.249994 0.534625 0.730379 -0.401418
N4    N     N_R   0.902856 0.630034 0.008138 0.250506
O27   O     O_R   0.838411 0.563835 0.028785 -0.405912
O28   O     O_R   0.998806 0.681481 0.059986 -0.406764

loop_
_geom_bond_atom_site_label_1
_geom_bond_atom_site_label_2
_geom_bond_distance
_ccdc_geom_bond_type
C52   H23   1.083672 S    
C30   C31   1.379862 A    
O19   C56   1.300019 A    
C6    C9    1.404835 A    
C23   C24   1.416095 A    
C4    C6    1.491078 S    
O18   V4    1.998206 S    
N3    O25   1.301356 A    
C12   H1    1.084171 S    
C1    O6    1.299118 A    
O17   V3    2.171639 S    
C27   C28   1.390186 A    
C31   C32   1.384506 A    
C13   H2    1.082502 S    
N1    O22   1.296740 A    
C1    C38   1.505493 S    
C19   C20   1.424822 A    
C37   C42   1.419076 A    
C51   H21   1.083439 S    
C18   C19   1.417989 A    
C20   C24   1.413382 A    
O5    C3    1.301769 A    
O15   V3    1.983820 S    
C33   C35   1.423218 A    
V2    O10   2.144574 S    
C28   H12   1.081343 S    
C53   O16   1.304270 A    
N2    O23   1.298701 A    
C16   C17   1.389232 A    
C25   N1    1.432071 S    
C39   H17   1.080235 S    
C43   C53   1.483280 S    
C46   N3    1.446651 S    
O8    V2    2.014332 S    
C27   N4    1.439381 S    
C22   C25   1.436699 A    
C7    C8    1.396397 A    
C17   H9    1.082735 S    
C23   C28   1.415070 A    
C42   H19   1.079879 S    
C32   H16   1.077482 S    
O7    V1    2.171611 S    
C41   C42   1.392312 A    
O19   V4    2.014463 S    
O9    C4    1.292978 A    
O11   V4    2.014469 S    
C43   C51   1.404922 A    
C24   C56   1.493413 S    
C44   C47   1.410419 A    
C31   H15   1.082913 S    
C30   H14   1.083220 S    
C29   C34   1.430047 A    
C9    H6    1.084192 S    
C5    C12   1.405196 A    
C45   C46   1.413330 A    
C21   C22   1.438626 A    
O4    C2    1.305085 A    
C47   C48   1.407573 A    
C2    C44   1.501214 S    
C33   C34   1.430032 A    
C35   C36   1.416777 A    
C17   C18   1.393520 A    
O11   C54   1.293069 A    
C36   C39   1.417260 A    
O2    C1    1.309197 A    
C25   C26   1.402978 A    
C37   C38   1.426747 A    
O12   C53   1.298792 A    
O18   C55   1.293672 A    
O15   C55   1.310127 A    
C11   C12   1.412709 A    
C15   C16   1.392683 A    
N3    O26   1.301617 A    
H13   C41   1.082860 S    
C44   C46   1.425771 A    
O17   V4    1.700079 S    
O3    C4    1.310711 A    
O1    V2    1.991467 S    
C26   H11   1.083553 S    
C22   C23   1.435700 A    
C14   H4    1.083613 S    
O6    V2    2.008683 S    
O9    V2    1.997993 S    
C15   H7    1.082385 S    
C16   H8    1.082713 S    
C43   C50   1.406940 A    
O2    V1    1.997564 S    
C45   H22   1.083783 S    
C50   H20   1.084272 S    
C18   H10   1.081906 S    
C26   C27   1.387265 A    
C7    C11   1.397748 A    
C47   H24   1.077829 S    
C29   C30   1.399605 A    
O1    C2    1.305675 A    
C45   C49   1.400544 A    
C49   C50   1.413560 A    
O5    V1    1.998838 S    
N4    O28   1.300929 A    
O8    C3    1.301148 A    
N4    O27   1.301738 A    
C40   H18   1.082836 S    
N1    O21   1.294132 A    
C34   C38   1.435243 A    
C15   C20   1.415340 A    
C29   N2    1.423236 S    
C5    C13   1.412431 A    
C39   C40   1.392165 A    
C3    C21   1.494927 S    
C13   C14   1.396334 A    
O4    V1    1.985206 S    
C19   C21   1.423378 A    
O3    V1    1.983716 S    
V1    O10   1.719186 S    
C48   C52   1.403925 A    
C32   C33   1.419389 A    
V3    O20   1.719201 S    
N2    O24   1.301739 A    
C6    C8    1.412576 A    
C40   C41   1.387141 A    
O13   V3    1.998808 S    
O7    V2    1.700366 S    
C36   C37   1.426754 A    
C5    C55   1.490979 S    
C48   C49   1.409885 A    
C35   C54   1.494311 S    
O14   C54   1.308693 A    
C51   C52   1.399950 A    
C10   C14   1.397789 A    
O16   V4    1.986368 S    
V4    O20   2.144612 S    
C10   C11   1.418001 A    
O13   C56   1.298241 A    
C9    C10   1.412636 A    
O14   V3    1.997468 S    
O12   V3    1.985375 S    
C8    H5    1.082550 S    
C7    H3    1.083653 S    
