data_str_m3_o4_o11_f0_pcu.sym.17
_audit_creation_date              2012-12-10T20:26:26-0500
_audit_creation_method            fapswitch 2.2
_symmetry_space_group_name_H-M    P1
_symmetry_Int_Tables_number       1
_space_group_crystal_system       triclinic
_cell_length_a                    10.730152
_cell_length_b                    10.69672
_cell_length_c                    9.880918
_cell_angle_alpha                 89.389885
_cell_angle_beta                  89.781135
_cell_angle_gamma                 90.203473
_cell_volume                      1134.0265004

loop_
_atom_site_label
_atom_site_type_symbol
_atom_type_description
_atom_site_fract_x
_atom_site_fract_y
_atom_site_fract_z
_atom_type_partial_charge
C1    C     C_R   0.501804 0.259906 0.500453 0.895760
C2    C     C_R   0.597923 0.547976 0.070304 0.509405
C3    C     C_R   0.598564 0.545247 0.926462 -0.241094
C4    C     C_R   0.262749 0.505642 0.500418 0.944710
C5    C     C_R   0.403972 0.446765 0.929535 0.187858
C6    C     C_3   0.271448 0.486915 0.923545 -0.480482
C7    C     C_3   0.271284 0.485118 0.076719 -0.504329
C8    C     C_R   0.503946 0.739854 0.499232 0.866265
C9    C     C_R   0.737342 0.499645 0.499747 0.918084
C10   C     C_2   0.932644 0.540779 0.392930 -0.150994
C11   C     C_2   0.869202 0.495618 0.499134 -0.329049
C12   C     C_R   0.517327 0.128160 0.498872 -0.060559
C13   C     C_2   0.066769 0.534783 0.389444 -0.172371
C14   C     C_2   0.131784 0.524887 0.503560 -0.334097
C15   C     C_R   0.547175 0.061843 0.616549 0.040613
C16   C     C_3   0.687410 0.731600 0.138045 0.096356
C17   C     C_3   0.793506 0.790989 0.055611 -0.387818
C18   C     C_3   0.791261 0.933334 0.065319 -0.956334
C19   C     C_3   0.333133 0.133947 0.893968 0.134257
C20   C     C_3   0.295612 0.016250 0.974693 -0.406972
C21   C     C_3   0.230373 0.049972 0.106860 -0.941906
C22   C     C_R   0.512165 0.065720 0.374679 -0.216698
C23   C     C_R   0.513213 0.936984 0.373648 -0.242911
C24   C     C_R   0.522594 0.871156 0.496461 -0.060238
C25   C     C_R   0.552585 0.934415 0.614514 0.049793
C26   C     C_3   0.503259 0.921124 0.755365 -0.536055
C27   C     C_3   0.495643 0.063231 0.757925 0.352882
C28   C     C_R   0.404345 0.445622 0.072066 0.113075
H1    H     H_    0.885778 0.578657 0.304523 0.206827
H2    H     H_    0.089765 0.534480 0.602890 0.148750
H3    H     H_    0.498295 0.114984 0.279614 0.169441
H4    H     H_    0.497004 0.890284 0.278668 0.160221
H5    H     H_    0.411206 0.873042 0.759184 0.224766
H6    H     H_    0.574141 0.882552 0.825941 0.163582
H7    H     H_    0.697014 0.761944 0.244630 0.179146
H8    H     H_    0.596135 0.768235 0.100605 0.102300
H9    H     H_    0.884359 0.756073 0.093994 0.230402
H10   H     H_    0.784755 0.764511 0.947721 0.213720
H11   H     H_    0.701677 0.970580 0.026206 0.252125
H12   H     H_    0.561522 0.109059 0.829137 0.054289
H13   H     H_    0.868711 0.973825 0.004024 0.269136
H14   H     H_    0.803025 0.962464 0.172119 0.271405
H15   H     H_    0.250335 0.195357 0.885836 0.163860
H16   H     H_    0.405124 0.187755 0.949817 0.107035
H17   H     H_    0.231752 0.957958 0.913220 0.236307
H18   H     H_    0.379959 0.960657 0.999297 0.206177
H19   H     H_    0.290970 0.111217 0.168612 0.265111
H20   H     H_    0.209422 0.963393 0.165785 0.269297
H21   H     H_    0.141454 0.099163 0.085583 0.264498
H22   H     H_    0.677110 0.583222 0.870761 0.166688
H23   H     H_    0.260538 0.582324 0.879385 0.209633
H24   H     H_    0.209796 0.414725 0.879072 0.193578
H25   H     H_    0.259704 0.579687 0.120595 0.207193
H26   H     H_    0.210255 0.410769 0.120564 0.205277
H27   H     H_    0.912551 0.452745 0.586857 0.146564
H28   H     H_    0.111446 0.536823 0.291226 0.167965
N1    N     N_R   0.499170 0.499140 0.142800 -0.149238
N2    N     N_R   0.499170 0.499180 0.857150 -0.128256
O1    O     O_R   0.500020 0.316790 0.614690 -0.597733
O2    O     O_3   0.370752 0.105363 0.760328 -0.613590
O3    O     O_R   0.500000 0.316760 0.385350 -0.632250
O4    O     O_R   0.319080 0.500020 0.614640 -0.619288
O5    O     O_R   0.319070 0.499980 0.385300 -0.616094
O6    O     O_R   0.500000 0.683240 0.614650 -0.615748
O7    O     O_R   0.499980 0.683210 0.385310 -0.639666
O8    O     O_R   0.680930 0.500020 0.614700 -0.633994
O9    O     O_R   0.680920 0.499980 0.385360 -0.564805
O10   O     O_3   0.697942 0.599629 0.136996 -0.639675
Zn1   Zn    Zn3+2 0.500010 0.500020 0.653130 0.945453
Zn2   Zn    Zn3+2 0.499990 0.499980 0.346870 0.962436

loop_
_geom_bond_atom_site_label_1
_geom_bond_atom_site_label_2
_ccdc_geom_bond_type
O3    Zn2   S    
C28   N1    A    
C18   H11   S    
O5    Zn2   S    
N2    Zn1   S    
C6    C7    S    
C16   O10   S    
C12   C22   A    
N1    Zn2   S    
C5    C28   A    
C26   H5    S    
C15   C27   S    
C20   H17   S    
C4    O5    A    
C12   C15   A    
C27   H12   S    
C23   C24   A    
C13   H28   S    
C23   H4    S    
C21   H20   S    
C21   H21   S    
C2    C3    A    
C25   C26   S    
C2    N1    A    
C8    O7    A    
C17   H9    S    
O6    Zn1   S    
C24   C25   A    
C9    C11   S    
C10   H1    S    
C26   C27   S    
C16   H8    S    
C1    C12   S    
C5    N2    A    
C14   H2    S    
C8    C24   S    
C3    H22   S    
O1    Zn1   S    
C17   C18   S    
C2    O10   S    
C17   H10   S    
C18   H14   S    
C16   H7    S    
C4    C14   S    
C5    C6    S    
C6    H23   S    
C15   C25   A    
O8    Zn1   S    
C22   H3    S    
C7    H25   S    
O7    Zn2   S    
C8    O6    A    
C3    N2    A    
C4    O4    A    
C7    H26   S    
C9    O9    A    
C11   H27   S    
C19   H16   S    
C10   C11   D    
C18   H13   S    
C1    O1    A    
C9    O8    A    
C19   O2    S    
C27   O2    S    
O9    Zn2   S    
C6    H24   S    
C20   C21   S    
C13   C14   D    
C26   H6    S    
C22   C23   A    
C20   H18   S    
C7    C28   S    
C19   C20   S    
O4    Zn1   S    
C19   H15   S    
C16   C17   S    
C21   H19   S    
C10   C13   S    
C1    O3    A    
