data_str_m9_o7_o16_f0_sra.sym.10
_audit_creation_date              2012-12-11T17:34:15-0500
_audit_creation_method            fapswitch 2.2
_symmetry_space_group_name_H-M    P1
_symmetry_Int_Tables_number       1
_space_group_crystal_system       triclinic
_cell_length_a                    23.739328
_cell_length_b                    7.208215
_cell_length_c                    20.853881
_cell_angle_alpha                 89.999033
_cell_angle_beta                  104.924305
_cell_angle_gamma                 89.999752
_cell_volume                      3448.10239225

loop_
_atom_site_label
_atom_site_type_symbol
_atom_type_description
_atom_site_fract_x
_atom_site_fract_y
_atom_site_fract_z
_atom_type_partial_charge
O1    O     O_R   0.449110 0.494310 0.552140 -0.537497
O2    O     O_R   0.550890 0.994310 0.447860 -0.537497
O3    O     O_R   0.440010 0.824420 0.415850 -0.537060
O4    O     O_R   0.559990 0.324420 0.584150 -0.537058
C1    C     C_R   0.424941 0.655605 0.391806 0.712823
C2    C     C_R   0.575058 0.155602 0.608194 0.712832
O5    O     O_R   0.442260 0.824040 0.549660 -0.535054
O6    O     O_R   0.557740 0.324040 0.450340 -0.535056
O7    O     O_R   0.553160 0.993960 0.582620 -0.535820
O8    O     O_R   0.446840 0.493960 0.417380 -0.535818
C3    C     C_R   0.429487 0.656343 0.568708 0.692005
C4    C     C_R   0.570514 0.156344 0.431292 0.692000
O9    O     O_3   0.536380 0.660670 0.510660 -0.375529
O10   O     O_3   0.463620 0.160670 0.489340 -0.375527
V1    V     V_3+5 0.493250 0.935680 0.498020 1.392121
V2    V     V_3+5 0.506750 0.435680 0.501980 1.392119
C5    C     C_R   0.847090 0.917063 0.200276 0.188286
C6    C     C_R   0.152907 0.417085 0.799720 0.188289
C7    C     C_R   0.889131 0.908996 0.162047 0.143569
C8    C     C_R   0.110870 0.409005 0.837953 0.143569
C9    C     C_R   0.891116 0.053466 0.115717 -0.085123
C10   C     C_R   0.108884 0.553472 0.884282 -0.085124
C11   C     C_R   0.854131 0.207371 0.112275 -0.225501
C12   C     C_R   0.145867 0.707380 0.887722 -0.225500
H1    H     H_    0.855204 0.320372 0.078371 0.142015
H2    H     H_    0.144793 0.820379 0.921625 0.142016
C13   C     C_R   0.814480 0.217481 0.151227 -0.190337
C14   C     C_R   0.185518 0.717495 0.848770 -0.190336
H3    H     H_    0.786528 0.338191 0.146870 0.131173
H4    H     H_    0.213469 0.838204 0.853127 0.131173
C15   C     C_R   0.810102 0.073950 0.194747 0.087179
C16   C     C_R   0.189896 0.573970 0.805249 0.087180
C17   C     C_1   0.767993 0.092558 0.234216 -0.035686
C18   C     C_1   0.232005 0.592581 0.765781 -0.035687
C19   C     C_1   0.733324 0.105314 0.267720 -0.055549
C20   C     C_1   0.266675 0.605336 0.732278 -0.055550
C21   C     C_R   0.686621 0.975332 0.351028 -0.141407
C22   C     C_R   0.313361 0.475379 0.648953 -0.141389
H5    H     H_    0.713071 0.851484 0.354212 0.120618
H6    H     H_    0.286896 0.351562 0.645753 0.120617
C23   C     C_R   0.647128 0.989690 0.390421 -0.215125
C24   C     C_R   0.352856 0.489727 0.609561 -0.215140
H7    H     H_    0.644452 0.875999 0.423469 0.134775
H8    H     H_    0.355518 0.376064 0.576498 0.134769
C25   C     C_R   0.612105 0.148834 0.388098 -0.062596
C26   C     C_R   0.387897 0.648832 0.611903 -0.062584
C27   C     C_R   0.617198 0.294768 0.343602 0.150739
C28   C     C_R   0.382823 0.794730 0.656417 0.150744
C29   C     C_R   0.657391 0.277780 0.304528 -0.131962
C30   C     C_R   0.342629 0.777752 0.695490 -0.131956
H9    H     H_    0.661628 0.388391 0.270836 0.112926
H10   H     H_    0.338407 0.888336 0.729197 0.112931
C31   C     C_R   0.692108 0.119458 0.308155 0.087870
C32   C     C_R   0.307892 0.619472 0.691843 0.087859
C33   C     C_R   0.635497 0.222915 0.791065 0.189299
C34   C     C_R   0.364494 0.723036 0.208941 0.189296
H11   H     H_    0.553824 0.264389 0.718660 0.123749
H12   H     H_    0.446166 0.764506 0.281347 0.123749
C35   C     C_R   0.617598 0.152164 0.673878 -0.084924
C36   C     C_R   0.382401 0.652181 0.326121 -0.084936
C37   C     C_R   0.899798 0.049796 0.771385 -0.167548
C38   C     C_R   0.100205 0.549718 0.228616 -0.167550
C39   C     C_R   0.863237 0.081278 0.708874 -0.128333
C40   C     C_R   0.136766 0.581166 0.291128 -0.128332
C41   C     C_R   0.804098 0.112044 0.701027 -0.145044
C42   C     C_R   0.195904 0.611961 0.298976 -0.145047
C43   C     C_R   0.778906 0.102483 0.755312 0.055551
C44   C     C_R   0.221094 0.602465 0.244688 0.055547
C45   C     C_R   0.817058 0.088375 0.820680 0.022836
C46   C     C_R   0.182941 0.588390 0.179320 0.022841
C47   C     C_R   0.717011 0.121154 0.746197 -0.013624
C48   C     C_R   0.282988 0.621168 0.253803 -0.013625
C49   C     C_R   0.696309 0.184504 0.801056 0.031913
C50   C     C_R   0.303684 0.684585 0.198947 0.031914
C51   C     C_R   0.737003 0.202079 0.863985 0.159862
C52   C     C_R   0.262987 0.702183 0.136021 0.159860
C53   C     C_R   0.792183 0.117397 0.874920 0.094357
C54   C     C_R   0.207813 0.617469 0.125082 0.094370
C55   C     C_R   0.674992 0.083060 0.684337 0.108431
C56   C     C_R   0.325010 0.583045 0.315658 0.108423
C57   C     C_R   0.599025 0.222147 0.726919 -0.211144
C58   C     C_R   0.400967 0.722233 0.273086 -0.211130
C59   C     C_R   0.878612 0.057600 0.828024 -0.060727
C60   C     C_R   0.121388 0.557585 0.171976 -0.060729
H13   H     H_    0.945865 0.028317 0.775925 0.107174
H14   H     H_    0.054139 0.528214 0.224075 0.107178
H15   H     H_    0.778625 0.149260 0.651967 0.133241
H16   H     H_    0.221378 0.649147 0.348038 0.133239
H17   H     H_    0.881117 0.085370 0.666092 0.120672
H18   H     H_    0.118888 0.585208 0.333912 0.120671
O11   O     O_R   0.053190 0.709680 0.082610 -0.533939
O12   O     O_R   0.946810 0.209680 0.917390 -0.533939
O13   O     O_R   0.057740 0.380240 0.950340 -0.534404
O14   O     O_R   0.942260 0.880240 0.049660 -0.534402
C61   C     C_R   0.068650 0.547550 0.929186 0.700985
C62   C     C_R   0.931351 0.047548 0.070815 0.700980
O15   O     O_R   0.060000 0.379940 0.084150 -0.536037
O16   O     O_R   0.940000 0.879940 0.915850 -0.536036
O17   O     O_R   0.949110 0.210100 0.052140 -0.540237
O18   O     O_R   0.050890 0.710100 0.947860 -0.540239
C63   C     C_R   0.075938 0.548752 0.107863 0.700100
C64   C     C_R   0.924062 0.048755 0.892137 0.700100
O19   O     O_3   0.963630 0.543720 0.989330 -0.373501
O20   O     O_3   0.036370 0.043720 0.010670 -0.373503
V3    V     V_3+5 0.006750 0.268680 0.001980 1.391872
V4    V     V_3+5 0.993250 0.768680 0.998020 1.391867
C65   C     C_3   0.841567 0.757752 0.245848 -0.800638
H19   H     H_    0.803007 0.768679 0.266293 0.209840
H20   H     H_    0.836986 0.624845 0.218059 0.214275
H21   H     H_    0.880740 0.752387 0.288521 0.209941
C66   C     C_3   0.158424 0.257793 0.754139 -0.800639
H22   H     H_    0.196975 0.268745 0.733679 0.209843
H23   H     H_    0.163017 0.124880 0.781927 0.214273
H24   H     H_    0.119243 0.252427 0.711476 0.209939
C67   C     C_3   0.727438 0.335162 0.916614 -0.770000
H25   H     H_    0.769502 0.385307 0.948839 0.210271
H26   H     H_    0.705179 0.462668 0.893177 0.211339
H27   H     H_    0.703291 0.267663 0.949211 0.210688
C68   C     C_3   0.272543 0.835314 0.083400 -0.769998
H28   H     H_    0.230476 0.885441 0.051176 0.210271
H29   H     H_    0.294792 0.962824 0.106844 0.211340
H30   H     H_    0.296697 0.767864 0.050800 0.210686
C69   C     C_3   0.605623 0.244477 0.846554 -0.776023
H31   H     H_    0.621372 0.137003 0.885075 0.212650
H32   H     H_    0.611661 0.386117 0.867769 0.212152
H33   H     H_    0.557778 0.222778 0.828623 0.200196
C70   C     C_3   0.394364 0.744686 0.153453 -0.776027
H34   H     H_    0.378625 0.637232 0.114924 0.212649
H35   H     H_    0.388314 0.886340 0.132249 0.212154
H36   H     H_    0.442212 0.723026 0.171381 0.200196
C71   C     C_3   0.687033 0.950333 0.633047 -0.790180
H37   H     H_    0.652004 0.844519 0.620046 0.226036
H38   H     H_    0.688706 0.026753 0.587334 0.187413
H39   H     H_    0.727447 0.868773 0.652030 0.216371
C72   C     C_3   0.312978 0.450259 0.366936 -0.790157
H40   H     H_    0.348011 0.344455 0.379924 0.226043
H41   H     H_    0.311303 0.526632 0.412658 0.187409
H42   H     H_    0.272566 0.368693 0.347947 0.216366
C73   C     C_3   0.822668 0.064272 0.944830 -0.777838
H43   H     H_    0.842390 0.924532 0.946139 0.208165
H44   H     H_    0.854987 0.172828 0.965474 0.207762
H45   H     H_    0.791887 0.054100 0.976766 0.215437
C74   C     C_3   0.177330 0.564367 0.055170 -0.777862
H46   H     H_    0.157613 0.424619 0.053854 0.208149
H47   H     H_    0.145009 0.672918 0.034528 0.207785
H48   H     H_    0.208114 0.554224 0.023234 0.215440
C75   C     C_3   0.932727 0.750596 0.171759 -0.752722
H49   H     H_    0.937011 0.672964 0.218521 0.201050
H50   H     H_    0.919620 0.650456 0.130135 0.217315
H51   H     H_    0.977011 0.805225 0.174425 0.197993
C76   C     C_3   0.067278 0.250594 0.828247 -0.752720
H52   H     H_    0.062999 0.172940 0.781492 0.201048
H53   H     H_    0.080386 0.150470 0.869876 0.217316
H54   H     H_    0.022992 0.305216 0.825574 0.197991
C77   C     C_3   0.579595 0.466544 0.334873 -0.759007
H55   H     H_    0.585129 0.553581 0.292952 0.192124
H56   H     H_    0.532859 0.427195 0.324105 0.204417
H57   H     H_    0.591773 0.553356 0.380288 0.218541
C78   C     C_3   0.420448 0.966453 0.665167 -0.759032
H58   H     H_    0.414930 0.053452 0.707103 0.192126
H59   H     H_    0.467179 0.927041 0.675923 0.204413
H60   H     H_    0.408277 0.053324 0.619764 0.218556

loop_
_geom_bond_atom_site_label_1
_geom_bond_atom_site_label_2
_ccdc_geom_bond_type
C72   H42   S    
C42   C44   A    
C39   C41   A    
C59   C64   S    
C19   C31   S    
C23   H7    S    
C10   C61   S    
C45   C53   A    
C66   H22   S    
O1    C3    A    
C40   H18   S    
C71   H39   S    
O2    C4    A    
C2    O7    A    
C47   C55   A    
C72   H40   S    
C27   C29   A    
O5    C3    A    
C38   H14   S    
C30   C32   A    
C56   C72   S    
C50   C52   A    
C77   H56   S    
C7    C9    A    
C12   H2    S    
C22   C24   A    
C5    C65   S    
C42   H16   S    
C73   H45   S    
C69   H32   S    
C46   C54   A    
C74   H46   S    
C62   O17   A    
C13   H3    S    
C74   H47   S    
C24   C26   A    
C25   C27   A    
C37   C39   A    
C38   C40   A    
O13   V3    S    
C36   C58   A    
C36   C56   A    
C75   H49   S    
C67   H26   S    
C30   H10   S    
C65   H19   S    
C78   H59   S    
C11   C13   A    
C33   C57   A    
C46   C60   A    
C43   C47   A    
O12   C64   A    
C69   H31   S    
C21   C31   A    
C28   C30   A    
C76   H52   S    
O13   C61   A    
C77   H57   S    
C60   C63   S    
C49   C51   A    
O11   V4    S    
C66   H24   S    
C24   H8    S    
O11   C63   A    
O20   V3    S    
C41   H15   S    
C33   C69   S    
C68   H29   S    
O17   V3    S    
C28   C78   S    
C26   C28   A    
C52   C68   S    
C34   C50   A    
C13   C15   A    
C35   C57   A    
C14   C16   A    
C75   H51   S    
C6    C66   S    
C48   C50   A    
C37   C59   A    
C74   H48   S    
C35   C55   A    
C47   C49   A    
C61   O18   A    
C5    C7    A    
C69   H33   S    
O5    V1    S    
C29   H9    S    
O16   C64   A    
C34   C70   S    
C7    C75   S    
C44   C48   A    
C43   C45   A    
C40   C42   A    
O4    V2    S    
C70   H35   S    
C45   C59   A    
C78   H58   S    
C22   C32   A    
O6    C4    A    
C67   H27   S    
C55   C71   S    
C39   H17   S    
C15   C17   S    
C78   H60   S    
C66   H23   S    
O1    V2    S    
O14   C62   A    
O2    V1    S    
C51   C53   A    
C37   H13   S    
C76   H54   S    
O4    C2    A    
C8    C10   A    
C9    C11   A    
C5    C15   A    
C65   H21   S    
C10   C12   A    
C6    C16   A    
C71   H37   S    
O3    C1    A    
O3    V1    S    
C73   H43   S    
C68   H30   S    
C72   H41   S    
C38   C60   A    
O14   V4    S    
C1    C36   S    
C75   H50   S    
C2    C35   S    
C12   C14   A    
C52   C54   A    
C4    C25   S    
C71   H38   S    
O16   V4    S    
C68   H28   S    
C34   C58   A    
C70   H34   S    
C9    C62   S    
O18   V4    S    
C41   C43   A    
C8    C76   S    
H12   C58   S    
O7    V1    S    
C70   H36   S    
O15   V3    S    
C1    O8    A    
C48   C56   A    
O8    V2    S    
C54   C74   S    
C22   H6    S    
C73   H44   S    
C65   H20   S    
C27   C77   S    
C29   C31   A    
C14   H4    S    
C17   C19   T    
C18   C20   T    
O19   V4    S    
C6    C8    A    
C76   H53   S    
C21   C23   A    
H11   C57   S    
C20   C32   S    
C33   C49   A    
O12   V3    S    
C21   H5    S    
C11   H1    S    
C51   C67   S    
O6    V2    S    
O9    V2    S    
C77   H55   S    
C44   C46   A    
C23   C25   A    
O10   V1    S    
C3    C26   S    
C53   C73   S    
O15   C63   A    
C67   H25   S    
C16   C18   S    
