data_str_m2_o10_o28_f0_pcu.sym.61
_audit_creation_date              2012-10-26T20:18:18-0400
_audit_creation_method            fapswitch 2.2
_symmetry_space_group_name_H-M    P1
_symmetry_Int_Tables_number       1
_space_group_crystal_system       triclinic
_cell_length_a                    23.49789
_cell_length_b                    8.680619
_cell_length_c                    7.438257
_cell_angle_alpha                 103.017262
_cell_angle_beta                  94.133704
_cell_angle_gamma                 92.329852
_cell_volume                      1471.86408549

loop_
_atom_site_label
_atom_site_type_symbol
_atom_type_description
_atom_site_fract_x
_atom_site_fract_y
_atom_site_fract_z
_atom_type_partial_charge
C1    C     C_R   0.498282 0.199653 0.453187 0.555343
C2    C     C_R   0.706915 0.531527 0.658867 -0.131903
C3    C     C_R   0.244104 0.503290 0.680945 0.309034
C4    C     C_R   0.766607 0.533028 0.656298 0.306088
C5    C     C_R   0.209274 0.495214 0.515195 0.220780
C6    C     C_R   0.790712 0.503667 0.485451 0.276314
C7    C     C_2   0.497457 0.031735 0.426825 -0.145219
C8    C     C_2   0.502543 0.968265 0.573175 -0.145680
C9    C     C_R   0.390968 0.499619 0.502547 0.553584
C10   C     C_R   0.609035 0.500502 0.497519 0.557052
C11   C     C_R   0.883336 0.644587 0.532379 0.477158
C12   C     C_R   0.501718 0.800348 0.546813 0.555240
C13   C     C_R   0.116555 0.355030 0.457417 0.427919
C14   C     C_R   0.876450 0.362698 0.430033 0.430257
C15   C     C_R   0.123428 0.636840 0.561018 0.411483
C16   C     C_R   0.936033 0.358714 0.433094 0.001368
C17   C     C_R   0.063822 0.641115 0.554517 -0.001515
C18   C     C_R   0.969856 0.501586 0.489880 -0.086275
C19   C     C_R   0.030000 0.498259 0.497130 -0.086138
C20   C     C_R   0.943559 0.647406 0.539979 0.070184
C21   C     C_R   0.056305 0.352399 0.447227 0.070080
C22   C     C_R   0.962136 0.214692 0.382424 -0.096366
C23   C     C_R   0.234264 0.488437 0.348774 -0.066258
C24   C     C_R   0.037716 0.785244 0.603737 -0.096925
C25   C     C_R   0.021883 0.209581 0.388501 0.235651
C26   C     C_R   0.977971 0.790364 0.597341 0.235053
C27   C     C_R   0.755596 0.473221 0.319720 -0.104697
C28   C     C_R   0.293317 0.489986 0.344706 -0.134509
C29   C     C_R   0.696390 0.472708 0.323031 -0.158581
C30   C     C_R   0.328471 0.498704 0.507854 -0.048083
C31   C     C_R   0.671550 0.501547 0.492670 -0.022828
C32   C     C_R   0.303443 0.505486 0.675249 -0.070027
Cu1   Cu    Cu3+1 0.506340 0.517380 0.684380 0.968256
Cu2   Cu    Cu3+1 0.493660 0.482620 0.315620 0.971914
H1    H     H_    0.936058 0.104915 0.338220 0.189755
H2    H     H_    0.507336 0.039988 0.714166 0.136584
H3    H     H_    0.454926 0.379350 0.948753 0.240677
H4    H     H_    0.545071 0.620659 0.051247 0.239562
H5    H     H_    0.016779 0.979540 0.299212 0.327728
H6    H     H_    0.983071 0.020539 0.685278 0.327733
H7    H     H_    0.180027 0.500151 0.833228 0.347071
H8    H     H_    0.778750 0.583124 0.924880 0.316793
H9    H     H_    0.063797 0.895028 0.647797 0.189185
H10   H     H_    0.207609 0.482367 0.222111 0.176916
H11   H     H_    0.774360 0.449883 0.188286 0.144099
H12   H     H_    0.311363 0.484720 0.213657 0.168661
H13   H     H_    0.670140 0.449038 0.192944 0.142888
H14   H     H_    0.329904 0.511616 0.802423 0.151836
H15   H     H_    0.688266 0.553947 0.790644 0.117897
H16   H     H_    0.492664 0.960012 0.285834 0.137243
N1    N     N_R   0.851576 0.503786 0.480475 -0.390014
N2    N     N_R   0.148286 0.495531 0.513327 -0.434503
N3    N     N_2   0.484110 0.456420 0.038520 -0.257584
N4    N     N_2   0.515890 0.543580 0.961480 -0.258301
O1    O     O_R   0.504120 0.286130 0.619770 -0.504709
O2    O     O_2   0.143565 0.219148 0.412234 -0.381733
O3    O     O_2   0.843499 0.226482 0.379304 -0.447765
O4    O     O_2   0.156478 0.772761 0.613970 -0.435565
O5    O     O_3   0.046930 0.066509 0.337483 -0.629509
O6    O     O_3   0.952925 0.933507 0.647667 -0.627464
O7    O     O_3   0.222284 0.508618 0.849587 -0.695081
O8    O     O_3   0.802273 0.561582 0.817533 -0.653423
O9    O     O_R   0.495880 0.713870 0.380230 -0.504238
O10   O     O_R   0.493410 0.256770 0.308360 -0.494024
O11   O     O_R   0.506590 0.743230 0.691640 -0.494235
O12   O     O_R   0.423230 0.514630 0.655730 -0.508602
O13   O     O_R   0.576770 0.485370 0.344270 -0.506429
O14   O     O_R   0.412530 0.485280 0.344320 -0.496869
O15   O     O_R   0.587470 0.514720 0.655680 -0.502246
O16   O     O_2   0.856374 0.780646 0.576582 -0.370088

loop_
_geom_bond_atom_site_label_1
_geom_bond_atom_site_label_2
_ccdc_geom_bond_type
Cu2   O13   S    
Cu1   O1    S    
C2    C4    A    
C10   O15   A    
C5    N2    S    
H6    O6    S    
C2    H15   S    
H7    O7    S    
C6    N1    S    
C27   C29   A    
C13   N2    A    
C12   O11   A    
H8    O8    S    
C14   N1    A    
C5    C23   A    
Cu1   O15   S    
C8    C12   S    
C13   O2    S    
H5    O5    S    
C27   H11   S    
Cu2   O10   S    
Cu1   Cu2   S    
C1    O1    A    
C11   O16   S    
H3    N3    S    
C7    C8    D    
C29   C31   A    
C10   O13   A    
N3    N4    D    
C13   C21   A    
C30   C32   A    
C22   H1    S    
C32   H14   S    
C28   H12   S    
C20   C26   A    
C9    C30   S    
C29   H13   S    
C28   C30   A    
Cu2   O9    S    
C17   C19   A    
C24   C26   A    
Cu1   O12   S    
C18   C19   A    
C18   C20   A    
C3    O7    S    
C3    C32   A    
C24   H9    S    
C15   O4    S    
C14   C16   A    
C11   C20   A    
C9    O14   A    
C17   C24   A    
C23   C28   A    
C14   O3    S    
Cu1   O11   S    
C1    O10   A    
C4    O8    S    
C11   N1    A    
Cu2   N3    S    
C16   C18   A    
C4    C6    A    
C8    H2    S    
Cu2   O14   S    
Cu1   N4    S    
C15   C17   A    
C12   O9    A    
C21   C25   A    
C9    O12   A    
C16   C22   A    
C25   O5    S    
C19   C21   A    
C15   N2    A    
C1    C7    S    
C26   O6    S    
C10   C31   S    
C23   H10   S    
C6    C27   A    
C7    H16   S    
C2    C31   A    
C3    C5    A    
C22   C25   A    
H4    N4    S    
