data_str_m9_o16_o24_f0_sra.sym.52
_audit_creation_date              2012-12-11T15:13:46-0500
_audit_creation_method            fapswitch 2.2
_symmetry_space_group_name_H-M    P1
_symmetry_Int_Tables_number       1
_space_group_crystal_system       triclinic
_cell_length_a                    6.943964
_cell_length_b                    13.474055
_cell_length_c                    20.118
_cell_angle_alpha                 104.080986
_cell_angle_beta                  90.015257
_cell_angle_gamma                 90.570952
_cell_volume                      1825.65180163

loop_
_atom_site_label
_atom_site_type_symbol
_atom_type_description
_atom_site_fract_x
_atom_site_fract_y
_atom_site_fract_z
_atom_type_partial_charge
O1    O     O_R   0.506780 0.600060 0.449950 -0.538676
O2    O     O_R   0.179840 0.597110 0.589410 -0.544682
O3    O     O_R   0.004570 0.399940 0.550050 -0.537693
C1    C     C_R   0.348601 0.618914 0.616839 0.684246
O4    O     O_R   0.177380 0.612160 0.452890 -0.540344
O5    O     O_R   0.002100 0.415100 0.412560 -0.540807
C2    C     C_R   0.346730 0.639362 0.436589 0.683612
O6    O     O_R   0.509250 0.584900 0.587440 -0.540544
O7    O     O_3   0.337570 0.435330 0.486930 -0.368208
V1    V     V_3+5 0.064650 0.512000 0.502430 1.418023
O8    O     O_R   0.672090 0.402890 0.410590 -0.543111
C3    C     C_R   0.840524 0.380967 0.383082 0.676502
O9    O     O_R   0.674540 0.387840 0.547110 -0.539402
C4    C     C_R   0.842849 0.360650 0.563388 0.699170
V2    V     V_3+5 0.564040 0.488000 0.497570 1.420428
O10   O     O_3   0.840990 0.564670 0.513070 -0.370102
C5    C     C_R   0.855488 0.105779 0.607505 -0.089721
H1    H     H_    0.848051 0.155372 0.513947 0.105073
H2    H     H_    0.864829 0.979649 0.690042 0.122134
H3    H     H_    0.856689 0.025586 0.580688 0.132530
C6    C     C_R   0.849764 0.282959 0.602768 -0.041281
C7    C     C_R   0.859566 0.319519 0.932605 -0.172481
C8    C     C_R   0.854555 0.396330 0.897491 -0.110594
C9    C     C_R   0.853164 0.371914 0.826102 -0.156295
C10   C     C_R   0.856637 0.268681 0.787625 0.080686
C11   C     C_R   0.861025 0.190211 0.824062 0.070546
C12   C     C_R   0.855743 0.240713 0.714376 0.069958
C13   C     C_R   0.858025 0.135319 0.679438 0.135679
C14   C     C_R   0.862607 0.060067 0.716361 -0.193288
C15   C     C_R   0.864330 0.086861 0.787462 -0.206445
C16   C     C_R   0.852442 0.313597 0.674317 -0.214644
C17   C     C_R   0.850774 0.179269 0.569409 -0.153913
C18   C     C_R   0.862568 0.216855 0.896670 -0.074746
H4    H     H_    0.851142 0.394788 0.696792 0.090109
H5    H     H_    0.861140 0.340164 0.988148 0.099555
H6    H     H_    0.849267 0.435873 0.802863 0.100495
H7    H     H_    0.851957 0.475692 0.925837 0.124784
H8    H     H_    0.868006 0.025437 0.813538 0.115557
C19   C     C_3   0.676906 0.220722 0.228502 -0.116537
C20   C     C_3   0.773489 0.199625 0.293066 -0.140005
H9    H     H_    0.705092 0.158888 0.328849 0.100592
H10   H     H_    0.528533 0.196731 0.210505 0.107163
C21   C     C_3   0.849390 0.310672 0.312474 -0.006418
C22   C     C_3   0.752888 0.332565 0.248709 -0.138303
C23   C     C_3   0.939366 0.299400 0.207232 -0.145205
C24   C     C_3   0.035939 0.278262 0.271780 -0.119009
C25   C     C_3   0.959949 0.166418 0.251551 -0.138507
C26   C     C_3   0.863464 0.188397 0.187798 -0.005835
H11   H     H_    0.667202 0.401426 0.247975 0.100625
H12   H     H_    0.007859 0.340147 0.171468 0.099043
H13   H     H_    0.184357 0.302078 0.289798 0.109345
H14   H     H_    0.045636 0.097542 0.252255 0.111065
C27   C     C_3   0.539601 0.725178 0.730020 -0.177515
C28   C     C_3   0.458323 0.835602 0.749517 -0.169430
H15   H     H_    0.541067 0.906555 0.749629 0.125574
H16   H     H_    0.689945 0.703638 0.714583 0.113766
C29   C     C_3   0.356674 0.812014 0.812349 -0.020939
C30   C     C_3   0.435300 0.703438 0.792392 0.242322
C31   C     C_3   0.253937 0.664692 0.749909 -0.134128
C32   C     C_3   0.174006 0.775363 0.769243 -0.162864
C33   C     C_3   0.275350 0.798430 0.705738 -0.121972
C34   C     C_3   0.356021 0.688827 0.687332 -0.042347
H17   H     H_    0.172416 0.593528 0.750323 0.103679
H18   H     H_    0.023908 0.796508 0.785297 0.113477
H19   H     H_    0.209027 0.837724 0.669030 0.120198
C35   C     C_R   0.390292 0.896037 0.392939 -0.150248
H20   H     H_    0.408335 0.020970 0.309691 0.116402
H21   H     H_    0.406546 0.976522 0.418191 0.151261
C36   C     C_R   0.357867 0.719359 0.398704 -0.116770
C37   C     C_R   0.335980 0.681387 0.068442 -0.165584
C38   C     C_R   0.324041 0.605134 0.103942 -0.122982
C39   C     C_R   0.331752 0.629842 0.175306 -0.164957
C40   C     C_R   0.351888 0.732838 0.213406 0.085191
C41   C     C_R   0.364353 0.810699 0.176534 0.069470
C42   C     C_R   0.360100 0.761174 0.286676 0.075853
C43   C     C_R   0.380991 0.866048 0.321106 0.102493
C44   C     C_R   0.392713 0.940750 0.283754 -0.206498
C45   C     C_R   0.384513 0.913752 0.212715 -0.199356
C46   C     C_R   0.348436 0.689083 0.327116 -0.215475
C47   C     C_R   0.379258 0.823561 0.432444 -0.018376
C48   C     C_R   0.356096 0.783788 0.103943 -0.081588
H22   H     H_    0.332335 0.608235 0.304734 0.098245
H23   H     H_    0.329412 0.660512 0.012939 0.122159
H24   H     H_    0.321537 0.566260 0.198808 0.101578
H25   H     H_    0.308484 0.525967 0.075905 0.119515
H26   H     H_    0.394278 0.974770 0.186364 0.114568
O11   O     O_R   0.203580 0.914920 0.912610 -0.542327
O12   O     O_R   0.535710 0.887810 0.047120 -0.538170
O13   O     O_R   0.710730 0.084950 0.087430 -0.542313
C49   C     C_R   0.366572 0.861317 0.064060 0.698950
O14   O     O_R   0.533010 0.902850 0.910600 -0.544747
O15   O     O_R   0.708010 0.100090 0.949930 -0.538746
C50   C     C_R   0.364266 0.881307 0.883083 0.707817
O16   O     O_R   0.206300 0.899780 0.050100 -0.538425
O17   O     O_3   0.375170 0.064580 0.013100 -0.371852
V3    V     V_3+5 0.648200 0.988020 0.997570 1.419956
O18   O     O_R   0.038030 0.112330 0.952840 -0.540721
C51   C     C_R   0.869715 0.138888 0.936149 0.688085
O19   O     O_R   0.040730 0.097300 0.089360 -0.544239
C52   C     C_R   0.872339 0.118667 0.117033 0.678147
V4    V     V_3+5 0.148780 0.012220 0.002360 1.418035
O20   O     O_3   0.871930 0.935430 0.986900 -0.369460
N1    N     N_3   0.521391 0.651422 0.840441 -0.688728
H27   H     H_    0.562343 0.578834 0.812450 0.220986
H28   H     H_    0.648048 0.691034 0.859092 0.223608
C53   C     C_2   0.390160 0.857244 0.508459 0.348119
H29   H     H_    0.381464 0.801867 0.539519 0.018301
O21   O     O_2   0.409123 0.947601 0.537528 -0.537122

loop_
_geom_bond_atom_site_label_1
_geom_bond_atom_site_label_2
_ccdc_geom_bond_type
C22   H11   S    
C20   C25   S    
C35   H21   S    
O12   V3    S    
V4    O20   S    
C47   C53   S    
V3    O20   S    
C40   C41   A    
O17   V3    S    
H20   C44   S    
C1    O6    A    
O18   C51   A    
O15   C51   A    
C44   C45   A    
C7    H5    S    
C6    C16   A    
C9    H6    S    
C4    C6    S    
C13   C14   A    
C3    C21   S    
O5    C3    A    
C27   H16   S    
C53   H29   S    
V2    O10   S    
C1    C34   S    
O15   V3    S    
C5    H3    S    
C15   H8    S    
C18   C51   S    
C24   C25   S    
C37   C48   A    
O14   V3    S    
O11   V4    S    
O8    V2    S    
C20   C21   S    
C25   C26   S    
O16   V4    S    
C8    C9    A    
C37   C38   A    
O1    V2    S    
O7    V1    S    
C45   H26   S    
C31   C32   S    
C29   C50   S    
O9    C4    A    
C40   C42   A    
C49   O16   A    
C19   H10   S    
C26   C52   S    
C6    C17   A    
O13   C52   A    
C12   C16   A    
C9    C10   A    
C19   C20   S    
O4    C2    A    
C29   C32   S    
C10   C11   A    
C8    H7    S    
C24   H13   S    
C32   C33   S    
C25   H14   S    
O2    C1    A    
C42   C43   A    
C2    C36   S    
C14   C15   A    
C33   H19   S    
O14   C50   A    
C27   C34   S    
C11   C18   A    
O19   C52   A    
C27   C30   S    
C35   C43   A    
C16   H4    S    
N1    H28   S    
C43   C44   A    
C37   H23   S    
C39   H24   S    
O3    C4    A    
C48   C49   S    
C20   H9    S    
O19   V4    S    
O12   C49   A    
C11   C15   A    
O6    V2    S    
O9    V2    S    
C21   C22   S    
C36   C46   A    
H1    C17   S    
C41   C48   A    
O2    V1    S    
C12   C13   A    
C22   C23   S    
C23   C26   S    
C7    C18   A    
C28   H15   S    
C31   C34   S    
O1    C2    A    
C5    C13   A    
C39   C40   A    
O5    V1    S    
C46   H22   S    
O8    C3    A    
C27   C28   S    
C19   C22   S    
C28   C33   S    
C10   C12   A    
C35   C47   A    
C31   H17   S    
C32   H18   S    
O13   V3    S    
C30   C31   S    
O4    V1    S    
O3    V1    S    
V1    O10   S    
C29   C30   S    
C53   O21   D    
C23   H12   S    
C38   H25   S    
O11   C50   A    
O7    V2    S    
C33   C34   S    
C21   C24   S    
C23   C24   S    
C38   C39   A    
C41   C45   A    
N1    H27   S    
C5    C17   A    
C7    C8    A    
C36   C47   A    
C30   N1    S    
C42   C46   A    
O18   V4    S    
O17   V4    S    
C19   C26   S    
C28   C29   S    
H2    C14   S    
