data_str_m3_o4_o4_f0_pcu.sym.188
_audit_creation_date              2012-12-10T20:41:49-0500
_audit_creation_method            fapswitch 2.2
_symmetry_space_group_name_H-M    P1
_symmetry_Int_Tables_number       1
_space_group_crystal_system       triclinic
_cell_length_a                    15.127806
_cell_length_b                    15.194489
_cell_length_c                    9.868602
_cell_angle_alpha                 88.638124
_cell_angle_beta                  87.967231
_cell_angle_gamma                 89.80328
_cell_volume                      2266.31430251

loop_
_atom_site_label
_atom_site_type_symbol
_atom_type_description
_atom_site_fract_x
_atom_site_fract_y
_atom_site_fract_z
_atom_type_partial_charge
C1    C     C_R   0.379279 0.880255 0.502614 0.864082
C2    C     C_R   0.381574 0.121555 0.500107 0.885719
C3    C     C_R   0.879279 0.380255 0.502614 0.864081
C4    C     C_R   0.881590 0.621571 0.500104 0.885751
C5    C     C_3   0.300781 0.238411 0.758326 0.904456
C6    C     C_3   0.304844 0.734533 0.753463 0.849937
C7    C     C_3   0.800651 0.738263 0.758382 0.904416
C8    C     C_3   0.804871 0.234508 0.753446 0.849910
C9    C     C_R   0.424033 0.017466 0.075163 0.236456
C10   C     C_R   0.924031 0.517459 0.075163 0.236676
C11   C     C_R   0.576470 0.991142 0.068043 -0.105055
C12   C     C_R   0.076471 0.491147 0.068043 -0.105042
C13   C     C_R   0.576472 0.991262 0.924095 -0.084099
C14   C     C_R   0.076473 0.491266 0.924095 -0.084196
C15   C     C_R   0.424094 0.017434 0.932231 0.330621
C16   C     C_R   0.924092 0.517428 0.932231 0.330583
C17   C     C_3   0.344114 0.961673 0.935021 -0.420985
C18   C     C_3   0.844118 0.461654 0.935025 -0.420970
C19   C     C_3   0.342484 0.963385 0.087768 -0.513406
C20   C     C_3   0.842488 0.463370 0.087771 -0.513437
C21   C     C_R   0.621905 0.117565 0.497181 0.900385
C22   C     C_R   0.621900 0.882140 0.499067 0.875726
C23   C     C_R   0.121905 0.617564 0.497181 0.900387
C24   C     C_R   0.121889 0.382132 0.499066 0.875736
C25   C     C_R   0.312814 0.250525 0.606476 0.018834
C26   C     C_R   0.314498 0.742837 0.599657 -0.032902
C27   C     C_R   0.812789 0.750498 0.606564 0.018884
C28   C     C_R   0.814512 0.242828 0.599639 -0.032909
C29   C     C_R   0.323355 0.194951 0.496589 -0.152797
C30   C     C_R   0.313683 0.812791 0.504741 -0.135139
C31   C     C_R   0.823417 0.695009 0.496586 -0.152859
C32   C     C_R   0.813680 0.312794 0.504742 -0.135139
C33   C     C_R   0.280760 0.215552 0.375663 -0.159574
C34   C     C_R   0.258463 0.808665 0.393611 -0.170254
C35   C     C_R   0.780930 0.715718 0.375604 -0.159512
C36   C     C_R   0.758446 0.308683 0.393624 -0.170258
C37   C     C_R   0.717259 0.780862 0.374476 -0.173150
C38   C     C_R   0.698932 0.240418 0.385560 -0.166335
C39   C     C_R   0.217096 0.280701 0.374528 -0.173153
C40   C     C_R   0.198948 0.740401 0.385550 -0.166382
C41   C     C_R   0.696403 0.825485 0.494186 -0.083527
C42   C     C_R   0.694260 0.176324 0.489341 -0.069871
C43   C     C_R   0.196357 0.325439 0.494174 -0.083463
C44   C     C_R   0.194262 0.676320 0.489343 -0.069876
C45   C     C_R   0.750676 0.816073 0.604518 -0.017256
C46   C     C_R   0.757260 0.173469 0.588538 -0.005053
C47   C     C_R   0.250713 0.316108 0.604415 -0.017203
C48   C     C_R   0.257249 0.673477 0.588559 -0.005009
C49   C     C_3   0.732296 0.812847 0.754611 -0.564935
C50   C     C_3   0.747230 0.154083 0.737112 -0.530498
C51   C     C_3   0.232444 0.313011 0.754533 -0.565037
C52   C     C_3   0.247202 0.654108 0.737134 -0.530521
H1    H     H_    0.291565 0.177567 0.284957 0.194770
H2    H     H_    0.258086 0.860460 0.316581 0.161555
H3    H     H_    0.791811 0.677813 0.284835 0.195034
H4    H     H_    0.758059 0.360488 0.316606 0.161550
H5    H     H_    0.285506 0.000634 0.132009 0.209622
H6    H     H_    0.354256 0.897329 0.134367 0.248031
H7    H     H_    0.785505 0.500616 0.132007 0.209700
H8    H     H_    0.854264 0.397316 0.134375 0.248011
H9    H     H_    0.680246 0.791184 0.283400 0.188690
H10   H     H_    0.652405 0.241627 0.304503 0.177614
H11   H     H_    0.180005 0.290950 0.283513 0.188652
H12   H     H_    0.152433 0.741601 0.304481 0.177623
H13   H     H_    0.753176 0.874622 0.802095 0.221405
H14   H     H_    0.777860 0.089843 0.764637 0.224423
H15   H     H_    0.253387 0.374821 0.801851 0.221414
H16   H     H_    0.277825 0.589871 0.764683 0.224389
H17   H     H_    0.663787 0.793056 0.784768 0.228071
H18   H     H_    0.679193 0.161915 0.780927 0.212191
H19   H     H_    0.163947 0.293264 0.784847 0.228039
H20   H     H_    0.179162 0.661947 0.780927 0.212175
H21   H     H_    0.638023 0.982283 0.119276 0.164683
H22   H     H_    0.138024 0.482293 0.119276 0.164726
H23   H     H_    0.637999 0.982909 0.866766 0.146679
H24   H     H_    0.138000 0.482914 0.866767 0.146703
H25   H     H_    0.286320 0.994068 0.889539 0.236236
H26   H     H_    0.362689 0.896766 0.895842 0.295271
H27   H     H_    0.786318 0.494037 0.889541 0.236415
H28   H     H_    0.862704 0.396747 0.895853 0.295256
N1    N     N_R   0.499140 0.000000 0.142800 -0.118301
N2    N     N_R   0.999140 0.500000 0.142800 -0.118333
N3    N     N_R   0.499160 0.000000 0.857150 -0.095855
N4    N     N_R   0.999160 0.500000 0.857150 -0.095924
O1    O     O_R   0.408400 0.908380 0.614690 -0.605461
O2    O     O_R   0.408400 0.091620 0.614690 -0.560346
O3    O     O_R   0.908400 0.408380 0.614690 -0.605480
O4    O     O_R   0.908400 0.591620 0.614690 -0.560276
O5    O     O_R   0.408370 0.908370 0.385350 -0.617020
O6    O     O_R   0.408370 0.091630 0.385350 -0.625759
O7    O     O_R   0.908370 0.408370 0.385350 -0.617027
O8    O     O_R   0.908370 0.591630 0.385350 -0.625791
O9    O     O_R   0.591610 0.091610 0.614650 -0.602728
O10   O     O_R   0.591610 0.908390 0.614650 -0.620333
O11   O     O_R   0.091610 0.591610 0.614650 -0.602762
O12   O     O_R   0.091610 0.408390 0.614650 -0.620391
O13   O     O_R   0.591590 0.091600 0.385310 -0.623457
O14   O     O_R   0.591590 0.908400 0.385310 -0.622782
O15   O     O_R   0.091590 0.591600 0.385310 -0.623452
O16   O     O_R   0.091590 0.408400 0.385310 -0.622767
Zn1   Zn    Zn3+2 0.500010 1.000000 0.653130 1.014187
Zn2   Zn    Zn3+2 0.000010 0.500000 0.653130 1.014144
Zn3   Zn    Zn3+2 0.499980 1.000000 0.346870 0.976551
Zn4   Zn    Zn3+2 0.999980 0.500000 0.346870 0.976562
S1    S     S_3+6 0.397941 0.269374 0.845117 0.029153
O17   O     O_2   0.426096 0.360862 0.801535 -0.311337
O18   O     O_2   0.377269 0.266858 0.995276 -0.303171
O19   O     O_3   0.481215 0.199330 0.809757 -0.562145
H29   H     H_    0.527401 0.213386 0.874475 0.364804
S2    S     S_3+6 0.407030 0.706189 0.831371 0.028186
O20   O     O_2   0.390854 0.696268 0.982039 -0.239215
O21   O     O_2   0.442843 0.620772 0.777947 -0.330599
O22   O     O_3   0.482479 0.785390 0.800002 -0.558307
H30   H     H_    0.509780 0.770769 0.710681 0.351657
S3    S     S_3+6 0.897740 0.769169 0.845409 0.029138
O23   O     O_2   0.925711 0.860826 0.802468 -0.311173
O24   O     O_2   0.877062 0.766178 0.995563 -0.303436
O25   O     O_3   0.981165 0.699398 0.809574 -0.562171
H31   H     H_    0.027350 0.713374 0.874346 0.364794
S4    S     S_3+6 0.907064 0.206154 0.831332 0.028161
O26   O     O_2   0.890882 0.196170 0.982011 -0.239225
O27   O     O_2   0.942892 0.120753 0.777819 -0.330697
O28   O     O_3   0.982506 0.285386 0.800034 -0.558358
H32   H     H_    0.009799 0.270816 0.710703 0.351715
O29   O     O_3   0.266930 0.156263 0.810343 -0.614191
C53   C     C_3   0.199997 0.118054 0.733638 -0.327833
H33   H     H_    0.230016 0.070599 0.661754 0.155940
H34   H     H_    0.158508 0.165714 0.677405 0.167399
H35   H     H_    0.154798 0.080318 0.804122 0.232369
O30   O     O_3   0.258565 0.801439 0.826529 -0.630785
C54   C     C_3   0.190904 0.845705 0.756207 -0.328715
H36   H     H_    0.149364 0.801416 0.697568 0.192337
H37   H     H_    0.219420 0.899105 0.690007 0.162316
H38   H     H_    0.146162 0.877560 0.831938 0.232727
O31   O     O_3   0.766788 0.656069 0.810190 -0.614233
C55   C     C_3   0.699920 0.617902 0.733306 -0.327864
H39   H     H_    0.729999 0.570492 0.661403 0.155926
H40   H     H_    0.658470 0.665592 0.677063 0.167331
H41   H     H_    0.654677 0.580118 0.803662 0.232419
O32   O     O_3   0.758596 0.301405 0.826540 -0.630816
C56   C     C_3   0.690920 0.345672 0.756246 -0.328525
H42   H     H_    0.649371 0.301384 0.697621 0.192397
H43   H     H_    0.719423 0.399074 0.690037 0.162301
H44   H     H_    0.646188 0.377524 0.831996 0.232761

loop_
_geom_bond_atom_site_label_1
_geom_bond_atom_site_label_2
_ccdc_geom_bond_type
C23   O15   A    
C53   H33   S    
C22   O14   A    
O12   Zn2   S    
N4    Zn2   S    
C14   N4    A    
O7    Zn4   S    
C6    O30   S    
C54   H38   S    
O31   C55   S    
C5    S1    S    
C11   N1    A    
S1    O18   D    
C28   C46   A    
C33   C39   A    
C49   H13   S    
C2    C29   S    
C34   C40   A    
C32   C36   A    
C35   C37   A    
C38   C42   A    
C12   H22   S    
C56   H43   S    
C42   C46   A    
C22   C41   S    
O14   Zn3   S    
C29   C33   A    
C16   N4    A    
C7    C27   S    
O19   H29   S    
C25   C29   A    
C3    O7    A    
C22   O10   A    
C7    S3    S    
C2    O6    A    
O25   H31   S    
C17   H26   S    
S2    O20   D    
C37   C41   A    
C9    C19   S    
O16   Zn4   S    
C13   H23   S    
C3    O3    A    
C10   C20   S    
C18   H27   S    
S3    O24   D    
C1    O5    A    
O10   Zn1   S    
C45   C49   S    
C20   H8    S    
C25   C47   A    
C40   C44   A    
C52   H16   S    
O11   Zn2   S    
C26   C48   A    
C27   C45   A    
O15   Zn4   S    
C49   H17   S    
O5    Zn3   S    
C33   H1    S    
C6    S2    S    
C51   H19   S    
C55   H41   S    
S4    O27   D    
C19   H6    S    
C1    O1    A    
S1    O19   S    
C30   C34   A    
C35   H3    S    
O28   H32   S    
O32   C56   S    
C7    C49   S    
C55   H40   S    
C11   H21   S    
C56   H44   S    
O9    Zn1   S    
C47   C51   S    
C53   H35   S    
C27   C31   A    
C10   N2    A    
C19   H5    S    
C23   C44   S    
N2    Zn4   S    
C38   H10   S    
C14   H24   S    
C7    O31   S    
C36   H4    S    
O3    Zn2   S    
C21   O13   A    
O4    Zn2   S    
C28   C32   A    
S3    O25   S    
C52   H20   S    
C17   H25   S    
C12   N2    A    
C51   H15   S    
C20   H7    S    
C50   H14   S    
S2    O22   S    
O13   Zn3   S    
C5    C25   S    
C18   H28   S    
C12   C14   A    
C26   C30   A    
O29   C53   S    
C8    C28   S    
C31   C35   A    
C54   H36   S    
C8    C50   S    
O1    Zn1   S    
S4    O26   D    
C8    S4    S    
O22   H30   S    
N1    Zn3   S    
C15   C17   S    
C46   C50   S    
C53   H34   S    
C37   H9    S    
N3    Zn1   S    
C24   O16   A    
C55   H39   S    
C54   H37   S    
C39   C43   A    
S4    O28   S    
C34   H2    S    
C4    O4    A    
C39   H11   S    
S1    O17   D    
C13   N3    A    
C40   H12   S    
C8    O32   S    
C24   O12   A    
O30   C54   S    
C50   H18   S    
C10   C16   A    
C56   H42   S    
C11   C13   A    
C6    C26   S    
C21   O9    A    
C15   N3    A    
C36   C38   A    
C1    C30   S    
C17   C19   S    
C23   O11   A    
C2    O2    A    
C18   C20   S    
C9    C15   A    
C3    C32   S    
S2    O21   D    
O6    Zn3   S    
C4    C31   S    
O8    Zn4   S    
C21   C42   S    
C44   C48   A    
C48   C52   S    
C16   C18   S    
C5    O29   S    
C24   C43   S    
C41   C45   A    
C5    C51   S    
C6    C52   S    
O2    Zn1   S    
C43   C47   A    
S3    O23   D    
C9    N1    A    
C4    O8    A    
