data_str_m2_o10_o29_f0_pcu.sym.2
_audit_creation_date              2012-10-26T20:17:37-0400
_audit_creation_method            fapswitch 2.2
_symmetry_space_group_name_H-M    P1
_symmetry_Int_Tables_number       1
_space_group_crystal_system       triclinic
_cell_length_a                    27.769473
_cell_length_b                    8.713753
_cell_length_c                    7.464308
_cell_angle_alpha                 103.429704
_cell_angle_beta                  94.210049
_cell_angle_gamma                 92.969432
_cell_volume                      1747.63703356

loop_
_atom_site_label
_atom_site_type_symbol
_atom_type_description
_atom_site_fract_x
_atom_site_fract_y
_atom_site_fract_z
_atom_type_partial_charge
C1    C     C_R   0.498486 0.199937 0.453192 0.574036
C2    C     C_R   0.868558 0.369629 0.385434 -0.023480
C3    C     C_R   0.354665 0.499012 0.509410 -0.012746
C4    C     C_R   0.645335 0.500943 0.490625 -0.012715
C5    C     C_R   0.970583 0.363126 0.403390 0.001587
C6    C     C_R   0.029410 0.636476 0.596939 0.001630
C7    C     C_R   0.978387 0.643718 0.570725 0.036075
C8    C     C_R   0.021608 0.355894 0.429556 0.036052
C9    C     C_R   0.949124 0.504296 0.484727 -0.106334
C10   C     C_R   0.050871 0.495321 0.515565 -0.106316
C11   C     C_R   0.940175 0.238372 0.286916 0.476613
C12   C     C_R   0.501514 0.800063 0.546808 0.574033
C13   C     C_R   0.059814 0.761207 0.713495 0.476612
C14   C     C_R   0.890147 0.237876 0.286466 0.452190
C15   C     C_R   0.109842 0.761712 0.713974 0.452132
C16   C     C_R   0.407518 0.499615 0.502510 0.534537
C17   C     C_R   0.592481 0.500383 0.497495 0.534547
C18   C     C_R   0.044281 0.211457 0.386557 0.464351
C19   C     C_R   0.955721 0.788165 0.613668 0.464354
C20   C     C_2   0.497559 0.032397 0.426912 0.338959
C21   C     C_2   0.502441 0.967603 0.573087 0.338960
C22   C     C_R   0.174875 0.356702 0.451221 0.466989
C23   C     C_R   0.102072 0.492293 0.526412 -0.168595
C24   C     C_R   0.825123 0.642989 0.548930 0.467166
C25   C     C_R   0.181858 0.629234 0.609523 0.489425
C26   C     C_R   0.818132 0.370434 0.390753 0.489373
C27   C     C_R   0.283922 0.511733 0.686732 0.311220
C28   C     C_R   0.716101 0.488365 0.313443 0.311234
C29   C     C_R   0.334338 0.513124 0.679025 -0.119651
C30   C     C_R   0.665684 0.487114 0.321101 -0.119657
C31   C     C_R   0.324124 0.483445 0.346916 -0.141273
C32   C     C_R   0.675853 0.516120 0.653088 -0.141248
C33   C     C_R   0.274144 0.482428 0.353847 -0.092441
C34   C     C_R   0.897922 0.507343 0.473859 -0.168615
C35   C     C_R   0.725835 0.517047 0.646204 -0.092505
C36   C     C_R   0.253919 0.496639 0.522810 0.262014
C37   C     C_R   0.746081 0.503093 0.477338 0.262125
C38   C     C_R   0.123975 0.351549 0.451004 0.027668
C39   C     C_R   0.876023 0.648111 0.549172 0.027693
C40   C     C_R   0.094829 0.209113 0.386326 0.316607
C41   C     C_R   0.905172 0.790536 0.613814 0.316638
C42   C     C_R   0.131435 0.630000 0.614904 -0.023496
Cu1   Cu    Cu3+1 0.505380 0.517380 0.684380 1.155815
Cu2   Cu    Cu3+1 0.494620 0.482620 0.315620 1.155821
F1    F     F_    0.863039 0.111138 0.178682 -0.496556
F2    F     F_    0.136951 0.888431 0.821886 -0.496552
F3    F     F_    0.957823 0.124780 0.156274 -0.493276
F4    F     F_    0.042157 0.874761 0.844162 -0.493344
F5    F     F_    0.018429 0.071282 0.368171 -0.515018
F6    F     F_    0.981587 0.928326 0.632086 -0.515061
F7    F     F_    0.491473 0.944264 0.249121 -0.593267
F8    F     F_    0.508527 0.055736 0.750879 -0.593261
H1    H     H_    0.338838 0.471751 0.214400 0.142355
H2    H     H_    0.908623 0.018602 0.722872 0.400631
H3    H     H_    0.710997 0.463479 0.047283 0.312976
H4    H     H_    0.289062 0.537023 0.953071 0.312978
H5    H     H_    0.661123 0.527589 0.785508 0.142350
H6    H     H_    0.250901 0.470416 0.227661 0.175217
H7    H     H_    0.749063 0.528776 0.772339 0.175085
H8    H     H_    0.642519 0.476094 0.194826 0.141749
H9    H     H_    0.357520 0.524466 0.805342 0.141793
H10   H     H_    0.435507 0.303380 0.006264 0.343942
H11   H     H_    0.564492 0.696623 0.993737 0.343950
H12   H     H_    0.091380 0.981056 0.277094 0.400700
N1    N     N_R   0.202305 0.494460 0.527084 -0.400233
N2    N     N_R   0.797693 0.505231 0.473106 -0.400213
N3    N     N_2   0.486510 0.456430 0.038510 0.107736
N4    N     N_2   0.513490 0.543570 0.961490 0.107734
O1    O     O_R   0.503500 0.286120 0.619780 -0.440829
O2    O     O_2   0.802931 0.773958 0.623510 -0.354976
O3    O     O_2   0.789597 0.237363 0.316459 -0.338932
O4    O     O_2   0.210386 0.762334 0.683839 -0.338847
O5    O     O_3   0.452767 0.358262 0.925046 -0.546124
O6    O     O_3   0.547232 0.641740 0.074954 -0.546137
O7    O     O_3   0.116338 0.067775 0.332649 -0.556357
O8    O     O_3   0.883666 0.931882 0.667382 -0.556438
O9    O     O_3   0.736989 0.476733 0.149106 -0.640723
O10   O     O_3   0.263055 0.523522 0.851184 -0.640619
O11   O     O_R   0.496500 0.713880 0.380220 -0.440832
O12   O     O_R   0.494410 0.256780 0.308360 -0.474192
O13   O     O_R   0.505590 0.743220 0.691640 -0.474195
O14   O     O_R   0.434810 0.514700 0.655690 -0.476957
O15   O     O_R   0.565190 0.485300 0.344310 -0.476933
O16   O     O_R   0.425720 0.485350 0.344280 -0.540838
O17   O     O_R   0.574280 0.514650 0.655720 -0.540846
O18   O     O_2   0.197071 0.225736 0.376560 -0.355027

loop_
_geom_bond_atom_site_label_1
_geom_bond_atom_site_label_2
_ccdc_geom_bond_type
C33   H6    S    
C27   C29   A    
C11   F3    S    
Cu2   O15   S    
C33   C36   A    
C24   O2    S    
C39   C41   A    
C23   C42   A    
C17   O17   A    
C35   C37   A    
C5    C11   A    
C20   F7    S    
H3    O9    S    
C11   C14   A    
N4    O6    S    
C22   C38   A    
C12   O11   A    
C16   O16   A    
C24   C39   A    
H4    O10   S    
C35   H7    S    
C3    C29   A    
C18   C40   A    
Cu1   N4    S    
C30   H8    S    
C31   C33   A    
H10   O5    S    
N3    O5    S    
C24   N2    A    
C2    C34   A    
Cu1   O1    S    
C26   O3    S    
C32   H5    S    
C14   F1    S    
C29   H9    S    
N3    N4    D    
C26   N2    A    
C32   C35   A    
Cu2   O12   S    
C25   N1    A    
C36   N1    S    
C27   O10   S    
C12   C21   S    
C1    O1    A    
C34   C39   A    
C17   O15   A    
Cu1   O17   S    
Cu1   Cu2   S    
C22   N1    A    
C5    C9    A    
C13   F4    S    
C37   N2    S    
C16   O14   A    
C2    C26   A    
C25   O4    S    
C31   H1    S    
C3    C31   A    
C28   O9    S    
C4    C32   A    
H2    O8    S    
C4    C17   S    
C7    C19   A    
C13   C15   A    
C9    C34   A    
C27   C36   A    
C7    C9    A    
C1    C20   S    
Cu2   O11   S    
C15   C42   A    
Cu2   O16   S    
C25   C42   A    
C6    C10   A    
C5    C8    A    
C6    C7    A    
H11   O6    S    
C10   C23   A    
C23   C38   A    
C40   O7    S    
C28   C30   A    
C6    C13   A    
C38   C40   A    
C19   F6    S    
C28   C37   A    
Cu1   O13   S    
H12   O7    S    
C12   O13   A    
C22   O18   S    
C2    C14   A    
C8    C18   A    
C20   C21   D    
C8    C10   A    
Cu1   O14   S    
C1    O12   A    
Cu2   N3    S    
C15   F2    S    
C21   F8    S    
C4    C30   A    
C3    C16   S    
C19   C41   A    
C18   F5    S    
C41   O8    S    
