data_str_m2_o4_o14_f0_pcu.sym.48
_audit_creation_date              2012-10-26T19:35:15-0400
_audit_creation_method            fapswitch 2.2
_symmetry_space_group_name_H-M    P1
_symmetry_Int_Tables_number       1
_space_group_crystal_system       triclinic
_cell_length_a                    10.879935
_cell_length_b                    10.877844
_cell_length_c                    9.612398
_cell_angle_alpha                 92.364057
_cell_angle_beta                  87.877428
_cell_angle_gamma                 89.640383
_cell_volume                      1135.84675183

loop_
_atom_site_label
_atom_site_type_symbol
_atom_type_description
_atom_site_fract_x
_atom_site_fract_y
_atom_site_fract_z
_atom_type_partial_charge
C1    C     C_R   0.505849 0.263187 0.497026 0.532980
C2    C     C_R   0.421289 0.938312 0.416557 0.060416
C3    C     C_R   0.494763 0.873714 0.508111 0.049097
C4    C     C_R   0.262192 0.486727 0.501532 0.607246
C5    C     C_R   0.578316 0.940712 0.588708 0.032680
C6    C     C_3   0.581011 0.957713 0.744874 0.090720
C7    C     C_3   0.601326 0.093247 0.729652 -0.209646
C8    C     C_R   0.584919 0.566046 0.072646 0.087086
C9    C     C_R   0.435769 0.414187 0.070656 0.158636
C10   C     C_R   0.438577 0.414506 0.922962 0.026380
C11   C     C_R   0.587895 0.562053 0.925895 0.120806
C12   C     C_R   0.053165 0.378119 0.552002 -0.053650
C13   C     C_3   0.621072 0.693260 0.919740 0.093472
C14   C     C_3   0.612176 0.701118 0.079034 0.102241
C15   C     C_R   0.497482 0.738276 0.502980 0.576484
C16   C     C_R   0.736714 0.500248 0.497135 0.534109
C17   C     C_R   0.099399 0.273430 0.619129 0.008799
C18   C     C_R   0.029072 0.163299 0.623768 0.238118
C19   C     C_R   0.912373 0.160960 0.571071 -0.063362
C20   C     C_R   0.857791 0.268790 0.532753 -0.141987
C21   C     C_R   0.925678 0.378198 0.526529 -0.003471
C22   C     C_2   0.369422 0.310041 0.130635 0.605596
C23   C     C_R   0.125450 0.479976 0.502394 0.062332
C24   C     C_2   0.199654 0.286774 0.715135 0.550145
C25   C     C_2   0.308059 0.885254 0.363324 0.625179
C26   C     C_R   0.065915 0.570756 0.426833 0.267380
C27   C     C_R   0.938171 0.579991 0.432914 -0.122710
C28   C     C_R   0.868905 0.486858 0.488660 -0.000775
C29   C     C_R   0.588649 0.067577 0.577974 -0.050170
C30   C     C_R   0.515416 0.130572 0.488452 -0.003809
C31   C     C_R   0.436367 0.064654 0.402972 -0.134980
Cu1   Cu    Cu3+1 0.499990 0.499980 0.640670 1.039109
Cu2   Cu    Cu3+1 0.500010 0.500020 0.359330 1.061975
H1    H     H_    0.659710 0.911477 0.791307 0.183667
H2    H     H_    0.372458 0.114542 0.342409 0.165228
H3    H     H_    0.077633 0.697139 0.289345 0.322287
H4    H     H_    0.339304 0.127176 0.110885 0.366211
H5    H     H_    0.798481 0.655446 0.910974 0.332556
H6    H     H_    0.436419 0.745086 0.087318 0.357744
H7    H     H_    0.290562 0.135904 0.635873 0.328350
H8    H     H_    0.112053 0.081354 0.770064 0.363085
H9    H     H_    0.192359 0.868672 0.204372 0.343568
H10   H     H_    0.474001 0.955859 0.909437 0.365510
H11   H     H_    0.526764 0.151323 0.780153 0.230537
H12   H     H_    0.695648 0.122776 0.755241 0.107509
H13   H     H_    0.396002 0.341839 0.865557 0.226525
H14   H     H_    0.550106 0.744300 0.867479 0.214151
H15   H     H_    0.699589 0.723778 0.130277 0.155347
H16   H     H_    0.859484 0.076995 0.571916 0.149126
H17   H     H_    0.763175 0.264966 0.502596 0.123770
H18   H     H_    0.892502 0.657251 0.388365 0.106128
N1    N     N_R   0.500790 0.500930 0.147930 -0.259992
N2    N     N_R   0.500790 0.500890 0.852020 -0.274896
O1    O     O_R   0.500000 0.319640 0.618810 -0.507443
O2    O     O_2   0.278356 0.326901 0.206997 -0.487580
O3    O     O_R   0.401795 0.190805 0.082060 -0.717128
O4    O     O_3   0.740952 0.709684 0.863413 -0.707213
O5    O     O_3   0.512840 0.775421 0.130184 -0.662057
O6    O     O_2   0.191846 0.368371 0.806123 -0.474760
O7    O     O_R   0.295082 0.200271 0.714525 -0.687461
O8    O     O_3   0.067245 0.057961 0.685529 -0.662905
O9    O     O_2   0.237258 0.835556 0.444344 -0.445036
O10   O     O_R   0.275860 0.903570 0.226257 -0.688553
O11   O     O_3   0.465497 0.935567 0.808654 -0.662927
O12   O     O_R   0.500010 0.319680 0.381230 -0.507377
O13   O     O_R   0.319640 0.499980 0.618820 -0.468863
O14   O     O_R   0.319650 0.500020 0.381230 -0.408660
O15   O     O_R   0.499990 0.680320 0.618770 -0.480852
O16   O     O_R   0.500000 0.680360 0.381190 -0.457500
O17   O     O_R   0.680350 0.499980 0.618770 -0.478838
O18   O     O_R   0.680360 0.500020 0.381180 -0.527100
O19   O     O_3   0.133914 0.646512 0.342739 -0.620584

loop_
_geom_bond_atom_site_label_1
_geom_bond_atom_site_label_2
_ccdc_geom_bond_type
C12   C17   A    
C16   C28   S    
C4    O14   A    
C1    O12   A    
C1    O1    A    
C18   O8    S    
C10   H13   S    
C22   O2    D    
C7    C29   S    
H8    O8    S    
C14   H15   S    
H9    O10   S    
H5    O4    S    
C26   O19   S    
C9    C10   A    
C19   H16   S    
Cu1   O13   S    
C19   C20   A    
C11   N2    A    
Cu2   O16   S    
C30   C31   A    
Cu1   O15   S    
Cu1   Cu2   S    
C2    C3    A    
Cu2   O12   S    
H4    O3    S    
C16   O18   A    
C7    H11   S    
Cu2   N1    S    
C4    O13   A    
C11   C13   S    
C12   C23   A    
C26   C27   A    
C29   C30   A    
C9    N1    A    
C8    C11   A    
C15   O16   A    
C15   O15   A    
C7    H12   S    
Cu1   O1    S    
C1    C30   S    
C21   C28   A    
C27   H18   S    
H10   O11   S    
C17   C18   A    
C2    C25   S    
C5    C29   A    
C25   O9    D    
C24   O6    D    
C8    N1    A    
C5    C6    S    
C14   O5    S    
C31   H2    S    
C9    C22   S    
C17   C24   S    
C13   O4    S    
Cu2   O18   S    
C6    H1    S    
Cu1   N2    S    
C27   C28   A    
C16   O17   A    
C20   C21   A    
Cu2   O14   S    
C20   H17   S    
C18   C19   A    
C25   O10   S    
C23   C26   A    
C6    O11   S    
H7    O7    S    
C4    C23   S    
C10   N2    A    
Cu1   O17   S    
C3    C15   S    
C22   O3    S    
C24   O7    S    
C8    C14   S    
C13   C14   S    
H6    O5    S    
C13   H14   S    
C12   C21   A    
C6    C7    S    
H3    O19   S    
C2    C31   A    
C3    C5    A    
