data_str_m4_o17_o17_f0_acs.sym.171
_audit_creation_date              2013-03-05T15:43:16-0500
_audit_creation_method            fapswitch 2.2
_symmetry_space_group_name_H-M    P1
_symmetry_Int_Tables_number       1
_space_group_crystal_system       triclinic
_cell_length_a                    12.8266
_cell_length_b                    12.826676
_cell_length_c                    26.748646
_cell_angle_alpha                 90.52939
_cell_angle_beta                  89.477019
_cell_angle_gamma                 119.799287
_cell_volume                      3818.63772742

loop_
_atom_site_label
_atom_site_type_symbol
_atom_site_description
_atom_site_fract_x
_atom_site_fract_y
_atom_site_fract_z
_atom_type_partial_charge
O1    O     O_R   0.460870 0.120930 0.805240 -0.541443
O2    O     O_R   0.660060 0.539130 0.694760 -0.509721
O3    O     O_R   0.879070 0.339940 0.805240 -0.538402
O4    O     O_R   0.460870 0.120930 0.694760 -0.500912
O5    O     O_R   0.660060 0.539130 0.805240 -0.533340
O6    O     O_R   0.879070 0.339940 0.694760 -0.482623
O7    O     O_R   0.120930 0.460870 0.305240 -0.501200
O8    O     O_R   0.539130 0.660060 0.194760 -0.532665
O9    O     O_R   0.339940 0.879070 0.305240 -0.483040
O10   O     O_R   0.120930 0.460870 0.194760 -0.540858
O11   O     O_R   0.539130 0.660060 0.305240 -0.509116
O12   O     O_R   0.339940 0.879070 0.194760 -0.537419
O13   O     O_R   0.498910 0.350470 0.801870 -0.491835
O14   O     O_R   0.851560 0.501090 0.698130 -0.499080
O15   O     O_R   0.649530 0.148440 0.801870 -0.490677
O16   O     O_R   0.498910 0.350470 0.698130 -0.489389
O17   O     O_R   0.851560 0.501090 0.801870 -0.491611
O18   O     O_R   0.649530 0.148440 0.698130 -0.479043
O19   O     O_R   0.350470 0.498910 0.301870 -0.490339
O20   O     O_R   0.501090 0.851560 0.198130 -0.491126
O21   O     O_R   0.148440 0.649530 0.301870 -0.479859
O22   O     O_R   0.350470 0.498910 0.198130 -0.491326
O23   O     O_R   0.501090 0.851560 0.301870 -0.499982
O24   O     O_R   0.148440 0.649530 0.198130 -0.489974
C1    C     C_R   0.557029 0.457177 0.821548 0.520583
C2    C     C_R   0.898639 0.440421 0.677705 0.533408
C3    C     C_R   0.543026 0.100538 0.821637 0.515138
C4    C     C_R   0.557677 0.457856 0.678601 0.553705
C5    C     C_R   0.899679 0.442998 0.821583 0.515338
C6    C     C_R   0.542905 0.098124 0.679207 0.526972
C7    C     C_R   0.457846 0.557755 0.321438 0.553309
C8    C     C_R   0.442917 0.900312 0.178554 0.518355
C9    C     C_R   0.098164 0.542938 0.320801 0.526148
C10   C     C_R   0.457925 0.557081 0.178632 0.523990
C11   C     C_R   0.440438 0.898633 0.322296 0.532427
C12   C     C_R   0.099916 0.542290 0.178500 0.518298
C13   C     C_R   0.993890 0.495504 0.974048 0.032358
C14   C     C_R   0.497940 0.999721 0.528670 0.019055
C15   C     C_R   0.504883 0.498280 0.974297 0.031970
C16   C     C_R   0.994648 0.490577 0.523813 0.027217
C17   C     C_R   0.501897 0.006917 0.974315 0.032888
C18   C     C_R   0.510124 0.506917 0.526384 0.044981
C19   C     C_R   0.490471 0.994252 0.476229 0.027479
C20   C     C_R   0.002487 0.498564 0.026430 0.029126
C21   C     C_R   0.506596 0.510560 0.473782 0.045007
C22   C     C_R   0.496964 0.998391 0.026704 0.028807
C23   C     C_R   0.000125 0.498136 0.471376 0.019095
C24   C     C_R   0.502319 0.502840 0.026710 0.028895
C25   C     C_R   0.962397 0.667087 0.977643 -0.079688
C26   C     C_R   0.701476 0.032428 0.523362 -0.125307
C27   C     C_R   0.333692 0.295824 0.976595 -0.084000
C28   C     C_R   0.014442 0.689511 0.528052 -0.083626
C29   C     C_R   0.704653 0.037864 0.975972 -0.078302
C30   C     C_R   0.327624 0.312676 0.525016 -0.144273
C31   C     C_R   0.688871 0.012755 0.472096 -0.084819
C32   C     C_R   0.984928 0.678533 0.028640 -0.074657
C33   C     C_R   0.312279 0.328112 0.475073 -0.144166
C34   C     C_R   0.694165 0.015388 0.026981 -0.074860
C35   C     C_R   0.033949 0.702071 0.476778 -0.125795
C36   C     C_R   0.323059 0.305708 0.027832 -0.081977
C37   C     C_R   0.944675 0.566188 0.898857 -0.092108
C38   C     C_R   0.619007 0.044930 0.603326 -0.125777
C39   C     C_R   0.433321 0.380022 0.898228 -0.089214
C40   C     C_R   0.969519 0.571244 0.602844 -0.101188
C41   C     C_R   0.620785 0.055595 0.898183 -0.090237
C42   C     C_R   0.432291 0.390216 0.602489 -0.147634
C43   C     C_R   0.571019 0.968818 0.397228 -0.101194
C44   C     C_R   0.032357 0.608916 0.104286 -0.102279
C45   C     C_R   0.390124 0.432669 0.397611 -0.147949
C46   C     C_R   0.577766 0.967933 0.103621 -0.104335
C47   C     C_R   0.045659 0.619340 0.396760 -0.126320
C48   C     C_R   0.392340 0.421670 0.104247 -0.102232
C49   C     C_R   0.036717 0.516964 0.130046 -0.030645
C50   C     C_R   0.471528 0.958275 0.372312 -0.025047
C51   C     C_R   0.483896 0.517774 0.130358 -0.032623
C52   C     C_R   0.030590 0.521390 0.367911 -0.042755
C53   C     C_R   0.481880 0.964244 0.130273 -0.032709
C54   C     C_R   0.484257 0.521530 0.370088 0.005307
C55   C     C_R   0.521200 0.030374 0.632128 -0.042725
C56   C     C_R   0.960521 0.483114 0.870374 -0.019658
C57   C     C_R   0.521184 0.484292 0.630038 0.005120
C58   C     C_R   0.522033 0.040402 0.870583 -0.018273
C59   C     C_R   0.958379 0.471456 0.627705 -0.025308
C60   C     C_R   0.516715 0.478571 0.870454 -0.019774
H1    H     H_    0.051341 0.691176 0.123550 0.146217
H2    H     H_    0.636793 0.954584 0.377139 0.159263
H3    H     H_    0.310035 0.358743 0.123258 0.147548
H4    H     H_    0.080066 0.706748 0.379886 0.199871
H5    H     H_    0.640743 0.948278 0.122183 0.143966
H6    H     H_    0.305538 0.373027 0.379586 0.185257
H7    H     H_    0.706329 0.078980 0.620236 0.199975
H8    H     H_    0.910206 0.619219 0.881737 0.134195
H9    H     H_    0.372718 0.305557 0.620471 0.185153
H10   H     H_    0.707905 0.089375 0.880371 0.135996
H11   H     H_    0.955596 0.637186 0.622959 0.160320
H12   H     H_    0.379940 0.293055 0.880442 0.137730
H13   H     H_    0.983023 0.750155 0.049137 0.209868
H14   H     H_    0.762186 0.016756 0.450582 0.182993
H15   H     H_    0.252133 0.231916 0.047959 0.207702
H16   H     H_    0.055354 0.785821 0.459289 0.195605
H17   H     H_    0.767807 0.017186 0.046715 0.209591
H18   H     H_    0.231295 0.263193 0.456742 0.170097
H19   H     H_    0.785090 0.053486 0.540883 0.195331
H20   H     H_    0.942222 0.729087 0.959514 0.176051
H21   H     H_    0.262758 0.231625 0.543305 0.168883
H22   H     H_    0.786516 0.057880 0.957050 0.174181
H23   H     H_    0.019199 0.763108 0.549614 0.184669
H24   H     H_    0.271739 0.214315 0.957851 0.174076
C61   C     C_R   0.969278 0.578212 0.949894 0.022692
C62   C     C_R   0.605643 0.022397 0.552048 -0.005615
C63   C     C_R   0.421921 0.391830 0.949441 0.023119
C64   C     C_R   0.993790 0.584373 0.551791 0.029411
C65   C     C_R   0.608745 0.031165 0.949198 0.023756
C66   C     C_R   0.422358 0.403526 0.551555 0.012537
C67   C     C_R   0.584048 0.992857 0.448298 0.029351
C68   C     C_R   0.005041 0.595116 0.053391 0.016361
C69   C     C_R   0.403242 0.422831 0.448566 0.012416
C70   C     C_R   0.591008 0.995462 0.052707 0.016025
C71   C     C_R   0.023267 0.606026 0.448044 -0.005991
C72   C     C_R   0.406241 0.408631 0.053193 0.016577
Cr1   Cr    Cr6+3 0.487630 0.241180 0.750000 1.048989
Cr2   Cr    Cr6+3 0.753550 0.512370 0.750000 1.039970
Cr3   Cr    Cr6+3 0.758820 0.246450 0.750000 1.064642
Cr4   Cr    Cr6+3 0.241180 0.487630 0.250000 1.048774
Cr5   Cr    Cr6+3 0.512370 0.753550 0.250000 1.040194
Cr6   Cr    Cr6+3 0.246450 0.758820 0.250000 1.064885
O25   O     O_3   0.666667 0.333333 0.750000 -0.250214
O26   O     O_3   0.333333 0.666667 0.250000 -0.249170
C73   C     C_R   0.014567 0.422515 0.892743 -0.006328
C74   C     C_R   0.406793 0.975255 0.610420 0.058270
C75   C     C_R   0.577576 0.592610 0.893664 -0.009307
C76   C     C_R   0.986168 0.390008 0.601618 -0.000826
C77   C     C_R   0.407840 0.986944 0.893821 -0.007345
C78   C     C_R   0.592059 0.598111 0.607003 0.007413
C79   C     C_R   0.390301 0.986383 0.398372 -0.001050
C80   C     C_R   0.998615 0.405964 0.105240 -0.003617
C81   C     C_R   0.598026 0.592598 0.393197 0.007010
C82   C     C_R   0.409453 0.003285 0.106378 -0.002711
C83   C     C_R   0.975189 0.406961 0.389592 0.058102
C84   C     C_R   0.594857 0.590267 0.105856 -0.004906
C85   C     C_R   0.009312 0.410741 0.945769 -0.014091
C86   C     C_R   0.399493 0.984479 0.557994 0.038361
C87   C     C_R   0.589401 0.598515 0.946676 -0.014684
C88   C     C_R   0.994720 0.393055 0.548110 -0.029162
C89   C     C_R   0.401587 0.991772 0.947002 -0.014158
C90   C     C_R   0.598546 0.605803 0.553656 -0.051852
C91   C     C_R   0.393262 0.994840 0.451884 -0.029046
C92   C     C_R   0.006148 0.405176 0.052091 -0.012117
C93   C     C_R   0.605628 0.598945 0.446562 -0.052645
C94   C     C_R   0.400430 0.995179 0.053350 -0.011939
C95   C     C_R   0.984420 0.399573 0.442012 0.038267
C96   C     C_R   0.595568 0.599239 0.052882 -0.012350
C97   C     C_R   0.016446 0.315305 0.024366 0.008797
C98   C     C_R   0.305482 0.005297 0.482135 -0.036966
C99   C     C_R   0.684785 0.699662 0.025863 0.009411
C100  C     C_R   0.992814 0.304836 0.464921 0.017014
C101  C     C_R   0.299836 0.984357 0.026751 0.010786
C102  C     C_R   0.703202 0.691993 0.473906 -0.005753
C103  C     C_R   0.305022 0.993281 0.535030 0.016472
C104  C     C_R   0.016194 0.316906 0.970905 0.006505
C105  C     C_R   0.691951 0.703183 0.526403 -0.005047
C106  C     C_R   0.300933 0.984451 0.973267 0.004252
C107  C     C_R   0.004785 0.305084 0.517812 -0.036404
C108  C     C_R   0.683125 0.698527 0.972412 0.005073
C109  C     C_2   0.925843 0.293113 0.134145 0.229909
H25   H     H_    0.932018 0.291710 0.174445 0.141920
O27   O     O_2   0.849657 0.201816 0.113617 -0.523373
C110  C     C_2   0.305626 0.007238 0.368462 0.244726
H26   H     H_    0.340343 0.085360 0.344467 0.106896
O28   O     O_2   0.198343 0.934009 0.368124 -0.489936
C111  C     C_2   0.707564 0.630328 0.134793 0.234447
H27   H     H_    0.708172 0.636598 0.175200 0.154555
O29   O     O_2   0.799630 0.646875 0.114092 -0.523351
C112  C     C_2   0.896392 0.300780 0.357952 0.299605
H28   H     H_    0.902037 0.306792 0.317504 0.125279
O30   O     O_2   0.818759 0.207630 0.376677 -0.537702
C113  C     C_2   0.369696 0.076604 0.136028 0.232406
H29   H     H_    0.363927 0.071573 0.176430 0.142545
O31   O     O_2   0.352756 0.151851 0.115921 -0.523447
C114  C     C_2   0.705103 0.654504 0.360396 0.240616
H30   H     H_    0.751374 0.751446 0.356456 0.134202
O32   O     O_2   0.739019 0.596074 0.335907 -0.499426
C115  C     C_2   0.300548 0.896580 0.642038 0.301482
H31   H     H_    0.306609 0.902038 0.682487 0.125891
O33   O     O_2   0.207258 0.819262 0.623292 -0.537455
C116  C     C_2   0.095705 0.396520 0.861293 0.231780
H32   H     H_    0.084750 0.386310 0.821118 0.136328
O34   O     O_2   0.182147 0.395564 0.879554 -0.494589
C117  C     C_2   0.653278 0.705171 0.639855 0.240317
H33   H     H_    0.750089 0.751135 0.644318 0.134380
O35   O     O_2   0.594376 0.739520 0.663742 -0.498674
C118  C     C_2   0.301040 0.905957 0.863006 0.229423
H34   H     H_    0.301183 0.917461 0.822935 0.135084
O36   O     O_2   0.214589 0.819026 0.881606 -0.495289
C119  C     C_2   0.006690 0.305078 0.631494 0.244434
H35   H     H_    0.084769 0.339560 0.655510 0.107716
O37   O     O_2   0.933253 0.197856 0.631782 -0.491176
C120  C     C_2   0.603809 0.699799 0.863162 0.234117
H36   H     H_    0.614286 0.699243 0.822942 0.149160
O38   O     O_2   0.604656 0.787062 0.882265 -0.493250
C121  C     C_2   0.039537 0.229010 0.052072 0.318658
H37   H     H_    0.097616 0.259856 0.084511 0.081315
O39   O     O_2   0.988763 0.122485 0.041495 -0.371099
C122  C     C_2   0.227416 0.047691 0.460109 0.237071
H38   H     H_    0.266057 0.120380 0.433595 0.114513
O40   O     O_2   0.120514 0.001359 0.469762 -0.461371
C123  C     C_2   0.769879 0.808673 0.054400 0.315259
H39   H     H_    0.737911 0.835567 0.087010 0.080433
O41   O     O_2   0.876601 0.864600 0.044258 -0.374635
C124  C     C_2   0.010779 0.218141 0.433407 0.273982
H40   H     H_    0.969008 0.124374 0.443206 0.220169
O42   O     O_2   0.074650 0.251522 0.396164 -0.528155
C125  C     C_2   0.190795 0.960271 0.055730 0.316906
H41   H     H_    0.164280 0.901120 0.087785 0.079753
O43   O     O_2   0.134720 0.011497 0.046736 -0.377172
C126  C     C_2   0.816761 0.778524 0.448688 0.267561
H42   H     H_    0.867794 0.745737 0.428083 0.122872
O44   O     O_2   0.853272 0.886207 0.450026 -0.471360
C127  C     C_2   0.218389 0.011561 0.566456 0.272091
H43   H     H_    0.124948 0.970950 0.556350 0.220935
O45   O     O_2   0.251496 0.074588 0.603935 -0.527899
C128  C     C_2   0.007996 0.214905 0.940626 0.322726
H44   H     H_    0.953489 0.186409 0.907099 0.088905
O46   O     O_2   0.064283 0.164728 0.950971 -0.413463
C129  C     C_2   0.779184 0.816183 0.551787 0.268696
H45   H     H_    0.747134 0.867876 0.572363 0.122767
O47   O     O_2   0.886627 0.851468 0.550636 -0.473484
C130  C     C_2   0.206058 0.991624 0.944172 0.323070
H46   H     H_    0.230361 0.044256 0.910160 0.091560
O48   O     O_2   0.100483 0.936896 0.956147 -0.406485
C131  C     C_2   0.046683 0.226512 0.539768 0.237317
H47   H     H_    0.118994 0.264601 0.566470 0.114915
O49   O     O_2   0.000546 0.119794 0.529743 -0.462658
C132  C     C_2   0.785044 0.792255 0.942664 0.320890
H48   H     H_    0.813543 0.766666 0.908625 0.089128
O50   O     O_2   0.835538 0.898165 0.954152 -0.408480

loop_
_geom_bond_atom_site_label_1
_geom_bond_atom_site_label_2
_geom_bond_distance
_ccdc_geom_bond_type
O16   C4    1.308605 A    
C16   C23   1.405540 A    
C104  C128  1.491313 S    
C111  H27   1.082891 S    
C11   C50   1.490553 S    
C76   C88   1.433870 A    
C109  H25   1.082570 S    
O14   Cr2   1.916138 S    
C94   C101  1.423807 A    
O17   C5    1.297886 A    
C121  H37   1.084846 S    
C34   C70   1.392863 A    
O7    Cr4   2.030187 S    
O16   Cr1   1.934366 S    
C36   H15   1.076089 S    
O19   C7    1.308878 A    
C25   H20   1.071691 S    
C130  O48   1.216770 D    
C121  O39   1.217748 D    
C57   C78   1.422913 A    
C24   C72   1.414379 A    
C125  H41   1.084761 S    
C82   C94   1.422838 A    
C33   H18   1.074635 S    
C111  O29   1.219538 D    
C2    C59   1.490730 S    
C13   C85   1.410407 A    
O6    Cr3   2.037906 S    
C78   C117  1.480903 S    
C25   C61   1.393368 A    
O11   Cr5   2.046997 S    
C126  O44   1.218540 D    
Cr1   O25   1.993195 S    
O10   Cr4   2.046004 S    
C51   C84   1.413742 A    
C115  O33   1.220269 D    
C47   C52   1.398123 A    
C83   C95   1.416220 A    
C103  C127  1.494883 S    
C40   C64   1.390855 A    
O21   C9    1.293091 A    
C80   C109  1.492964 S    
C28   C64   1.396322 A    
C37   C56   1.398086 A    
C102  C126  1.482415 S    
C26   C62   1.394168 A    
C22   C70   1.414596 A    
C117  O35   1.220669 D    
C45   C69   1.389399 A    
Cr2   O25   1.992970 S    
O3    C5    1.285490 A    
C91   C98   1.439409 A    
C43   C67   1.390787 A    
C112  H28   1.084589 S    
C29   C65   1.394079 A    
C102  C105  1.423528 A    
C19   C67   1.415591 A    
C8    C53   1.480058 S    
O15   C3    1.296849 A    
C29   H22   1.072103 S    
C18   C66   1.413554 A    
C28   H23   1.077420 S    
C114  O32   1.220588 D    
C27   H24   1.071315 S    
C113  O31   1.219913 D    
C1    C60   1.475132 S    
C35   C71   1.394213 A    
C79   C110  1.483180 S    
C96   C99   1.424114 A    
C120  H36   1.083371 S    
O18   C6    1.293233 A    
C41   C65   1.392881 A    
C14   C62   1.413188 A    
C93   C102  1.428877 A    
C84   C96   1.422292 A    
C105  C129  1.482429 S    
C37   H8    1.084554 S    
O18   Cr3   1.929308 S    
O23   Cr5   1.916051 S    
O1    C3    1.286766 A    
C110  O28   1.221191 D    
C37   C61   1.393792 A    
C26   H19   1.077848 S    
C109  O27   1.219966 D    
C98   C103  1.424296 A    
C20   C92   1.407086 A    
C73   C116  1.491888 S    
O12   C8    1.280945 A    
C46   C53   1.396368 A    
O24   Cr6   1.927396 S    
C44   H1    1.083957 S    
C14   C86   1.409753 A    
C81   C93   1.430470 A    
C45   C54   1.389394 A    
C117  H33   1.085142 S    
C132  O50   1.216868 D    
C32   H13   1.076057 S    
C48   C51   1.395244 A    
C78   C90   1.430087 A    
C130  H46   1.085197 S    
O3    Cr3   2.042248 S    
C97   C121  1.485650 S    
O2    Cr2   2.046925 S    
O22   C10   1.303960 A    
C90   C105  1.428446 A    
O19   Cr4   1.934233 S    
O7    C9    1.289122 A    
C100  C124  1.494673 S    
C123  H39   1.084653 S    
C38   C55   1.398004 A    
C75   C120  1.491668 S    
C53   C82   1.414715 A    
C100  C107  1.424266 A    
C16   C64   1.415624 A    
C35   H16   1.077958 S    
C17   C65   1.410586 A    
C127  H43   1.078736 S    
C34   H17   1.076379 S    
Cr6   O26   1.987048 S    
C73   C85   1.425210 A    
C44   C49   1.396515 A    
C55   C74   1.402567 A    
C108  C132  1.491336 S    
C39   H12   1.084662 S    
C50   C79   1.434160 A    
C119  H35   1.085146 S    
C101  C125  1.485806 S    
C18   C21   1.410140 A    
C118  O36   1.221349 D    
C115  H31   1.084566 S    
C81   C114  1.481054 S    
C40   C59   1.390368 A    
C28   C35   1.388290 A    
C127  O45   1.220847 D    
O13   Cr1   1.917605 S    
O8    Cr5   2.026376 S    
C9    C52   1.471033 S    
Cr3   O25   1.987049 S    
C38   C62   1.393561 A    
C49   C80   1.415312 A    
C17   C22   1.404992 A    
C126  H42   1.082521 S    
C38   H7    1.081311 S    
C48   C72   1.394855 A    
C129  H45   1.082398 S    
C32   C68   1.392945 A    
C17   C89   1.411760 A    
C131  O49   1.219355 D    
C43   C50   1.390435 A    
O8    C10   1.282940 A    
C95   C100  1.417293 A    
O14   C2    1.312217 A    
C128  O46   1.216882 D    
C80   C92   1.424333 A    
O15   Cr3   1.927608 S    
C44   C68   1.396445 A    
C42   H9    1.082870 S    
O5    C1    1.288003 A    
C6    C55   1.471144 S    
C124  O42   1.221173 D    
C41   H10   1.084563 S    
C22   C94   1.405915 A    
C15   C87   1.411270 A    
C113  H29   1.082879 S    
C84   C111  1.492570 S    
C79   C91   1.433902 A    
C16   C88   1.415378 A    
C88   C107  1.439673 A    
C14   C19   1.405575 A    
C46   H5    1.083797 S    
C77   C89   1.426549 A    
C92   C97   1.424787 A    
C86   C103  1.417471 A    
C116  O34   1.221304 D    
C45   H6    1.082869 S    
C18   C90   1.412603 A    
C54   C81   1.423520 A    
C87   C108  1.425040 A    
C48   H3    1.084167 S    
C75   C87   1.424768 A    
C114  H30   1.085031 S    
C7    C54   1.483159 S    
C33   C69   1.389941 A    
O20   C8    1.303417 A    
C52   C83   1.402536 A    
C21   C69   1.413571 A    
C76   C119  1.483098 S    
C110  H26   1.085133 S    
C43   H2    1.084822 S    
C27   C63   1.393232 A    
C56   C73   1.412245 A    
C42   C66   1.389493 A    
C30   H21   1.074535 S    
C4    C57   1.482732 S    
C13   C61   1.411296 A    
C3    C58   1.478972 S    
C85   C104  1.424815 A    
O9    Cr6   2.037684 S    
C40   H11   1.084808 S    
C123  O41   1.217719 D    
C120  O38   1.221276 D    
O13   C1    1.298400 A    
C106  C130  1.491619 S    
C29   C34   1.388623 A    
O22   Cr4   1.917726 S    
C47   C71   1.393500 A    
C99   C108  1.429905 A    
C25   C32   1.388207 A    
C10   C51   1.476348 S    
C60   C75   1.411240 A    
C99   C123  1.485834 S    
C26   C31   1.388293 A    
O24   C12   1.302642 A    
Cr4   O26   1.993207 S    
C39   C60   1.397466 A    
C74   C115  1.489511 S    
C98   C122  1.484354 S    
C118  H34   1.083177 S    
C58   C77   1.412422 A    
C24   C96   1.406738 A    
C116  H32   1.083318 S    
C125  O43   1.217674 D    
C59   C76   1.434393 A    
C42   C57   1.389438 A    
C122  O40   1.219202 D    
C15   C63   1.410921 A    
C41   C58   1.398741 A    
O6    C2    1.272577 A    
C5    C56   1.477881 S    
C31   C67   1.396295 A    
C46   C70   1.397630 A    
Cr5   O26   1.992958 S    
C30   C66   1.389765 A    
C31   H14   1.077403 S    
C23   C71   1.413157 A    
C129  O47   1.218427 D    
C112  O30   1.220417 D    
O10   C12   1.281712 A    
O4    Cr1   2.030041 S    
C36   C72   1.392154 A    
C21   C93   1.412779 A    
C39   C63   1.391180 A    
C128  H44   1.085363 S    
C74   C86   1.416237 A    
O23   C11   1.311984 A    
O1    Cr1   2.046160 S    
C19   C91   1.415298 A    
C12   C49   1.480579 S    
C23   C95   1.409691 A    
C107  C131  1.484747 S    
O11   C7    1.280284 A    
C47   H4    1.081386 S    
C13   C20   1.405134 A    
O17   Cr2   1.934601 S    
O20   Cr5   1.934697 S    
C89   C106  1.425964 A    
O12   Cr6   2.042474 S    
C122  H38   1.079095 S    
C20   C68   1.413674 A    
C124  H40   1.079380 S    
C132  H48   1.085364 S    
C131  H47   1.079046 S    
O9    C11   1.272747 A    
C97   C104  1.430408 A    
C83   C112  1.489572 S    
O2    C4    1.280428 A    
C27   C36   1.386915 A    
O21   Cr6   1.929521 S    
C82   C113  1.492977 S    
C101  C106  1.430582 A    
O5    Cr2   2.026440 S    
O4    C6    1.289002 A    
C77   C118  1.491810 S    
C15   C24   1.403433 A    
C119  O37   1.221166 D    
C30   C33   1.382392 A    
