data_str_m9_o2_o18_f0_sra.sym.72
_audit_creation_date              2013-03-05T16:02:16-0500
_audit_creation_method            fapswitch 2.2
_symmetry_space_group_name_H-M    P1
_symmetry_Int_Tables_number       1
_space_group_crystal_system       triclinic
_cell_length_a                    22.11897
_cell_length_b                    6.930604
_cell_length_c                    14.639057
_cell_angle_alpha                 90.974832
_cell_angle_beta                  104.580976
_cell_angle_gamma                 89.980164
_cell_volume                      2171.52594206

loop_
_atom_site_label
_atom_site_type_symbol
_atom_site_description
_atom_site_fract_x
_atom_site_fract_y
_atom_site_fract_z
_atom_type_partial_charge
O1    O     O_R   0.835850 0.638310 0.002120 -0.608984
O2    O     O_R   0.164150 0.361690 0.997880 -0.569769
O3    O     O_R   0.664150 0.138310 0.997880 -0.611969
O4    O     O_R   0.335850 0.861690 0.002120 -0.601265
O5    O     O_R   0.717530 0.306070 0.861970 -0.571067
O6    O     O_R   0.282470 0.693930 0.138030 -0.562518
O7    O     O_R   0.782470 0.806070 0.138030 -0.576810
O8    O     O_R   0.217530 0.193930 0.861970 -0.524979
C1    C     C_R   0.703213 0.473695 0.823819 1.050625
C2    C     C_R   0.298722 0.526832 0.175827 1.049871
C3    C     C_R   0.795625 0.979111 0.176237 1.109484
C4    C     C_R   0.202303 0.020817 0.824001 1.052299
O9    O     O_R   0.838690 0.308440 0.993250 -0.529409
O10   O     O_R   0.161310 0.691560 0.006750 -0.581678
O11   O     O_R   0.661310 0.808440 0.006750 -0.576002
O12   O     O_R   0.338690 0.191560 0.993250 -0.585825
O13   O     O_R   0.786170 0.140510 0.130090 -0.545595
O14   O     O_R   0.213830 0.859490 0.869910 -0.576700
O15   O     O_R   0.713830 0.640510 0.869910 -0.536827
O16   O     O_R   0.286170 0.359490 0.130090 -0.541170
C5    C     C_R   0.865877 0.477706 0.999495 1.038376
C6    C     C_R   0.134761 0.523025 0.003216 1.059495
C7    C     C_R   0.634973 0.977145 0.004708 1.079236
C8    C     C_R   0.365469 0.022865 0.997739 1.092749
O17   O     O_3   0.732630 0.472520 0.044740 -0.273313
O18   O     O_3   0.267370 0.527480 0.955260 -0.269498
O19   O     O_3   0.767370 0.972520 0.955260 -0.253202
O20   O     O_3   0.232630 0.027480 0.044740 -0.260340
V1    V     V_3+5 0.753220 0.196740 0.991700 1.348990
V2    V     V_3+5 0.246780 0.803260 0.008300 1.331217
V3    V     V_3+5 0.746780 0.696740 0.008300 1.332176
V4    V     V_3+5 0.253220 0.303260 0.991700 1.350443
H1    H     H_    0.587657 0.657494 0.285623 0.186991
H2    H     H_    0.409767 0.323839 0.713957 0.190190
H3    H     H_    0.898414 0.756626 0.700713 0.189739
H4    H     H_    0.105084 0.452498 0.328996 0.178013
C9    C     C_R   0.540854 0.113717 0.839688 0.304609
C10   C     C_R   0.459546 0.888337 0.163585 0.300617
C11   C     C_R   0.966420 0.403775 0.170580 0.321999
C12   C     C_R   0.036186 0.601910 0.833411 0.296044
C13   C     C_R   0.502076 0.229438 0.772784 -0.292766
C14   C     C_R   0.497412 0.771204 0.230588 -0.294037
C15   C     C_R   0.010357 0.409939 0.256871 -0.261859
C16   C     C_R   0.993442 0.694082 0.761449 -0.292256
C17   C     C_R   0.440697 0.256497 0.774206 -0.223627
C18   C     C_R   0.557523 0.730928 0.226636 -0.228188
C19   C     C_R   0.071317 0.450380 0.260965 -0.245088
C20   C     C_R   0.931626 0.704460 0.762930 -0.223361
C21   C     C_R   0.416521 0.161369 0.840361 0.345205
C22   C     C_R   0.582627 0.818146 0.159387 0.350833
C23   C     C_R   0.090050 0.482336 0.178810 0.369499
C24   C     C_R   0.910994 0.615093 0.834364 0.353081
C25   C     C_R   0.457360 0.080633 0.922154 -0.039372
C26   C     C_R   0.542972 0.911921 0.079914 -0.047815
C27   C     C_R   0.046713 0.484346 0.088363 -0.048996
C28   C     C_R   0.954394 0.552372 0.918185 -0.027110
C29   C     C_R   0.522286 0.061894 0.923125 -0.029162
C30   C     C_R   0.478255 0.936522 0.079857 -0.029244
C31   C     C_R   0.981909 0.455230 0.084945 -0.049882
C32   C     C_R   0.019528 0.554640 0.918793 -0.028664
C33   C     C_R   0.434640 0.014465 0.999803 -0.230017
C34   C     C_R   0.565947 0.983388 0.003074 -0.233496
C35   C     C_R   0.066167 0.515553 0.003321 -0.236755
C36   C     C_R   0.934763 0.487857 0.999402 -0.227566
H5    H     H_    0.516060 0.273002 0.710678 0.184990
H6    H     H_    0.483708 0.732997 0.293639 0.186537
H7    H     H_    0.997653 0.371276 0.321076 0.186635
H8    H     H_    0.006196 0.734923 0.697817 0.185537
C37   C     C_R   0.171657 0.001386 0.720635 -0.060030
C38   C     C_R   0.823540 0.000241 0.279598 -0.077038
C39   C     C_R   0.328103 0.534165 0.280043 -0.053515
C40   C     C_R   0.674945 0.467391 0.719912 -0.052027
C41   C     C_R   0.176812 0.893899 0.563626 -0.185095
C42   C     C_R   0.822752 0.162303 0.427639 -0.193877
C43   C     C_R   0.326469 0.658973 0.436110 -0.203898
C44   C     C_R   0.677477 0.342611 0.564484 -0.197936
C45   C     C_R   0.205935 0.937726 0.657419 -0.056256
C46   C     C_R   0.794894 0.122984 0.333102 -0.027632
C47   C     C_R   0.297509 0.627916 0.341480 -0.001586
C48   C     C_R   0.706504 0.376352 0.659117 -0.018535
C49   C     C_R   0.106253 0.016932 0.686536 -0.128815
C50   C     C_R   0.883891 0.930463 0.321231 -0.157355
C51   C     C_R   0.391273 0.486534 0.316210 -0.178123
C52   C     C_R   0.611783 0.513167 0.683642 -0.171614
C53   C     C_R   0.075658 0.981936 0.589634 0.079797
C54   C     C_R   0.916520 0.989313 0.414635 0.084593
C55   C     C_R   0.422518 0.517857 0.413024 0.084418
C56   C     C_R   0.580763 0.480621 0.587024 0.087135
C57   C     C_R   0.112241 0.913384 0.529447 0.189027
C58   C     C_R   0.883093 0.097218 0.468860 0.174191
C59   C     C_R   0.388567 0.606884 0.472223 0.196307
C60   C     C_R   0.614983 0.391976 0.528114 0.196104
C61   C     C_R   0.010145 0.011163 0.550608 0.043373
C62   C     C_R   0.981694 0.954649 0.454427 0.064190
C63   C     C_R   0.486974 0.473238 0.451860 0.064066
C64   C     C_R   0.516302 0.524382 0.548228 0.063412
C65   C     C_R   0.020265 0.878731 0.399267 -0.184291
C66   C     C_R   0.973061 0.105559 0.602986 -0.202947
C67   C     C_R   0.480351 0.618535 0.602553 -0.207084
C68   C     C_R   0.522980 0.378804 0.397690 -0.206396
C69   C     C_R   0.084313 0.862251 0.435739 -0.207293
C70   C     C_R   0.911071 0.149431 0.562380 -0.204686
C71   C     C_R   0.417533 0.654902 0.565705 -0.206413
C72   C     C_R   0.585934 0.342751 0.434704 -0.209898
H9    H     H_    0.112412 0.808910 0.389856 0.155175
H10   H     H_    0.885188 0.230183 0.604033 0.160593
H11   H     H_    0.391728 0.726838 0.610305 0.162300
H12   H     H_    0.611839 0.270985 0.390212 0.161473
H13   H     H_    0.905238 0.839805 0.277636 0.135560
H14   H     H_    0.079630 0.040478 0.737779 0.143373
H15   H     H_    0.586247 0.552065 0.734090 0.154571
H16   H     H_    0.416896 0.448261 0.265841 0.157376
H17   H     H_    0.751581 0.194757 0.301710 0.179471
H18   H     H_    0.255154 0.913941 0.679546 0.196558
H19   H     H_    0.752744 0.320814 0.684136 0.188361
H20   H     H_    0.251831 0.686835 0.317498 0.195164
H21   H     H_    0.204984 0.841786 0.517695 0.121778
H22   H     H_    0.798481 0.254182 0.467222 0.123941
H23   H     H_    0.300870 0.732402 0.480427 0.122592
H24   H     H_    0.703318 0.269559 0.520425 0.123669
H25   H     H_    0.002751 0.839169 0.325851 0.155431
H26   H     H_    0.991695 0.157615 0.674365 0.171480
H27   H     H_    0.499459 0.668460 0.674057 0.177437
H28   H     H_    0.503755 0.328982 0.326164 0.176210
N1    N     N_R   0.590585 0.015855 0.811395 0.222219
O21   O     O_R   0.616406 0.091627 0.749850 -0.420315
O22   O     O_R   0.596374 0.831599 0.824437 -0.471934
N2    N     N_R   0.409822 0.988047 0.190991 0.219030
O23   O     O_R   0.383601 0.914808 0.252689 -0.421168
O24   O     O_R   0.403728 0.171472 0.175824 -0.478787
N3    N     N_R   0.910566 0.306187 0.170627 0.209347
O25   O     O_R   0.876295 0.372871 0.224325 -0.441029
O26   O     O_R   0.907849 0.124196 0.146781 -0.458872
N4    N     N_R   0.090382 0.522558 0.810588 0.218609
O27   O     O_R   0.117879 0.613344 0.755236 -0.419345
O28   O     O_R   0.099619 0.338747 0.820742 -0.466198
N5    N     N_R   0.352089 0.109936 0.811690 0.191103
O29   O     O_R   0.311616 0.231471 0.764632 -0.433362
O30   O     O_R   0.337759 0.927584 0.809344 -0.497028
N6    N     N_R   0.648585 0.843879 0.184987 0.202173
O31   O     O_R   0.669568 0.019159 0.201432 -0.520093
O32   O     O_R   0.684752 0.701022 0.220253 -0.410551
N7    N     N_R   0.153634 0.526902 0.191693 0.172168
O33   O     O_R   0.168995 0.707685 0.190019 -0.456817
O34   O     O_R   0.194256 0.400979 0.233907 -0.471125
N8    N     N_R   0.847381 0.556990 0.811428 0.187253
O35   O     O_R   0.804867 0.673037 0.764702 -0.443799
O36   O     O_R   0.835942 0.372873 0.809592 -0.487567

loop_
_geom_bond_atom_site_label_1
_geom_bond_atom_site_label_2
_geom_bond_distance
_ccdc_geom_bond_type
O17   V3    1.705868 S    
C51   C55   1.424739 A    
C4    C37   1.498006 S    
C56   C64   1.430151 A    
O1    C5    1.300943 A    
C61   C62   1.437754 A    
C12   C32   1.432216 A    
C27   C31   1.435829 A    
O19   V1    1.689052 S    
O13   V1    2.017564 S    
C37   C45   1.401810 A    
O3    C7    1.308012 A    
C63   C64   1.434912 A    
C1    C40   1.491801 S    
C68   C72   1.385456 A    
O15   V3    2.004303 S    
N2    O23   1.299749 A    
C39   C47   1.405435 A    
C3    C38   1.488059 S    
C29   C34   1.432009 A    
O7    C3    1.315766 A    
N5    O30   1.300841 A    
C31   C36   1.434839 A    
C44   H24   1.083212 S    
C32   C35   1.427334 A    
O9    V1    2.037808 S    
N6    O32   1.302178 A    
C10   C14   1.391259 A    
C55   C59   1.415923 A    
N8    O36   1.299486 A    
O16   V4    2.004303 S    
O4    C8    1.305833 A    
C22   N6    1.422444 S    
C38   C46   1.401944 A    
N7    O33   1.300546 A    
C64   C67   1.411024 A    
O1    V3    2.035081 S    
H4    C19   1.083932 S    
O2    V4    2.035083 S    
C14   C18   1.373679 A    
O3    V1    2.035966 S    
C41   C45   1.390350 A    
C58   C70   1.394607 A    
C5    C36   1.525657 S    
C65   H25   1.077379 S    
C54   C62   1.434196 A    
C6    C35   1.518515 S    
C10   C30   1.433367 A    
C53   C61   1.433240 A    
C1    O15   1.319434 A    
C7    C34   1.521555 S    
C19   C23   1.388227 A    
C56   C60   1.415756 A    
C2    O16   1.323133 A    
C27   C35   1.435522 A    
O2    C6    1.304237 A    
C24   N8    1.418668 S    
C28   C36   1.442297 A    
O14   V2    2.017564 S    
C12   C16   1.390225 A    
C39   C51   1.405258 A    
C43   C59   1.391748 A    
C2    C39   1.500207 S    
C30   C33   1.431024 A    
O11   C7    1.303572 A    
O12   C8    1.305611 A    
C47   H20   1.066220 S    
C69   H9    1.084288 S    
H1    C18   1.083465 S    
C25   C33   1.435436 A    
O10   V2    2.037806 S    
H3    C20   1.083545 S    
C41   H21   1.083223 S    
O5    V1    2.024281 S    
O17   V1    2.142523 S    
C9    C29   1.434293 A    
C42   H22   1.083180 S    
C52   H15   1.067837 S    
O7    V3    2.000154 S    
O19   V3    2.166241 S    
O8    V4    2.000153 S    
C50   H13   1.078360 S    
C44   C48   1.388279 A    
O20   V4    2.166242 S    
C43   H23   1.083505 S    
N6    O31   1.297413 A    
C67   C71   1.382807 A    
C54   C58   1.418090 A    
C53   C57   1.414654 A    
C63   C68   1.411182 A    
C13   H5    1.079090 S    
C26   C34   1.440778 A    
C62   C65   1.410267 A    
C66   C70   1.386126 A    
C12   N4    1.430417 S    
O4    V2    2.035965 S    
C28   C32   1.438566 A    
C55   C63   1.431448 A    
C68   H28   1.077052 S    
O5    C1    1.301781 A    
C10   N2    1.435394 S    
C48   H19   1.069717 S    
C17   C21   1.393278 A    
O8    C4    1.321049 A    
C11   C31   1.430959 A    
O9    C5    1.309710 A    
H2    C17   1.083400 S    
C22   C26   1.434152 A    
N1    O22   1.295943 A    
C40   C52   1.402244 A    
C44   C60   1.395207 A    
C8    C33   1.523783 S    
C66   H26   1.078125 S    
O6    V2    2.024282 S    
O18   V2    2.142522 S    
N1    O21   1.299652 A    
C16   H8    1.081102 S    
C46   H17   1.078070 S    
C43   C47   1.385230 A    
N3    O25   1.301366 A    
C9    N1    1.435574 S    
C72   H12   1.084724 S    
C67   H27   1.076599 S    
N8    O35   1.301295 A    
C26   C30   1.441326 A    
N7    O34   1.299653 A    
C3    O13   1.306046 A    
C25   C29   1.438434 A    
C57   C69   1.394981 A    
C52   C56   1.422248 A    
C59   C71   1.391841 A    
N3    O26   1.300339 A    
N2    O24   1.295353 A    
O6    C2    1.303039 A    
N4    O28   1.295256 A    
O11   V3    2.037602 S    
N4    O27   1.299286 A    
O18   V4    1.705867 S    
C23   N7    1.404913 S    
O12   V4    2.037604 S    
N5    O29   1.301606 A    
C18   C22   1.392333 A    
C42   C58   1.397261 A    
O20   V2    1.689052 S    
C41   C57   1.396717 A    
C40   C48   1.403874 A    
C16   C20   1.374749 A    
C50   C54   1.428724 A    
O10   C6    1.301920 A    
C11   N3    1.408816 S    
C21   C25   1.428510 A    
C70   H10   1.084782 S    
C23   C27   1.426094 A    
C9    C13   1.393371 A    
C38   C50   1.409692 A    
C65   C69   1.387878 A    
C37   C49   1.411297 A    
C60   C72   1.393208 A    
C21   N5    1.424236 S    
C24   C28   1.428622 A    
C20   C24   1.395689 A    
C49   H14   1.074400 S    
C11   C15   1.386397 A    
C15   H7    1.084317 S    
C42   C46   1.388208 A    
C4    O14   1.306102 A    
C14   H6    1.078523 S    
C13   C17   1.375742 A    
C51   H16   1.067205 S    
C71   H11   1.084887 S    
C15   C19   1.363563 A    
C61   C66   1.409957 A    
C49   C53   1.426236 A    
C45   H18   1.068391 S    
