data_str_m4_o22_o22_f0_acs.sym.60
_audit_creation_date              2012-12-11T15:07:04-0500
_audit_creation_method            fapswitch 2.2
_symmetry_space_group_name_H-M    P1
_symmetry_Int_Tables_number       1
_space_group_crystal_system       triclinic
_cell_length_a                    19.615746
_cell_length_b                    11.361907
_cell_length_c                    18.727397
_cell_angle_alpha                 90.28267
_cell_angle_beta                  89.940792
_cell_angle_gamma                 89.984202
_cell_volume                      4173.76451374

loop_
_atom_site_label
_atom_site_type_symbol
_atom_type_description
_atom_site_fract_x
_atom_site_fract_y
_atom_site_fract_z
_atom_type_partial_charge
C1    C     C_R   0.760988 0.523521 0.639290 0.548463
C2    C     C_3   0.250785 0.056944 0.563610 0.031368
C3    C     C_R   0.739505 0.033890 0.151178 0.538092
C4    C     C_R   0.774108 0.133446 0.859044 0.533075
C5    C     C_R   0.225985 0.132852 0.141130 0.536913
C6    C     C_R   0.274108 0.633446 0.859044 0.533075
C7    C     C_R   0.725985 0.632852 0.141130 0.536913
C8    C     C_R   0.968056 0.353199 0.854125 0.532459
C9    C     C_R   0.031990 0.352937 0.145791 0.533713
C10   C     C_R   0.468056 0.853199 0.854125 0.532459
C11   C     C_R   0.531990 0.852937 0.145791 0.533713
C12   C     C_3   0.685908 0.115642 0.470145 -0.269615
C13   C     C_3   0.248785 0.553857 0.437709 0.032906
C14   C     C_3   0.307570 0.138755 0.535531 -0.265692
C15   C     C_3   0.185908 0.615642 0.470145 -0.269615
C16   C     C_3   0.807570 0.638755 0.535531 -0.265692
C17   C     C_3   0.688290 0.115748 0.551559 -0.301767
C18   C     C_3   0.305724 0.142100 0.453978 -0.292600
C19   C     C_3   0.188290 0.615748 0.551559 -0.301766
C20   C     C_3   0.805724 0.642100 0.453978 -0.292600
C21   C     C_3   0.767930 0.938069 0.477876 -0.198424
C22   C     C_3   0.247905 0.941463 0.518287 -0.196537
C23   C     C_3   0.267930 0.438069 0.477876 -0.198424
C24   C     C_3   0.750785 0.556944 0.563610 0.031368
C25   C     C_3   0.747905 0.441463 0.518287 -0.196537
C26   C     C_3   0.895702 0.906948 0.555914 -0.113688
C27   C     C_3   0.119103 0.894172 0.431286 -0.120068
C28   C     C_3   0.395702 0.406948 0.555914 -0.113688
C29   C     C_3   0.619103 0.394172 0.431286 -0.120068
C30   C     C_3   0.761630 0.084854 0.575954 0.081845
C31   C     C_3   0.236241 0.093408 0.426365 0.072793
C32   C     C_3   0.261630 0.584854 0.575954 0.081845
C33   C     C_3   0.736241 0.593408 0.426365 0.072793
C34   C     C_3   0.774242 0.954257 0.559742 0.154668
C35   C     C_3   0.237635 0.960252 0.437492 0.156169
C36   C     C_3   0.274243 0.454257 0.559742 0.154668
C37   C     C_R   0.238967 0.523411 0.361065 0.552655
C38   C     C_3   0.737635 0.460251 0.437492 0.156170
C39   C     C_3   0.812560 0.157679 0.531549 -0.220493
C40   C     C_3   0.176851 0.144531 0.472320 -0.220876
C41   C     C_3   0.312560 0.657679 0.531549 -0.220493
C42   C     C_3   0.676851 0.644531 0.472320 -0.220876
C43   C     C_3   0.002389 0.204867 0.459178 -0.232034
C44   C     C_3   0.003852 0.204381 0.541620 -0.242740
C45   C     C_3   0.502389 0.704866 0.459178 -0.232034
C46   C     C_3   0.503852 0.704381 0.541620 -0.242740
C47   C     C_3   0.062296 0.408670 0.473745 -0.209696
C48   C     C_R   0.260988 0.023521 0.639290 0.548463
C49   C     C_3   0.931288 0.388752 0.526901 -0.218343
C50   C     C_3   0.562296 0.908670 0.473745 -0.209697
C51   C     C_3   0.431288 0.888752 0.526901 -0.218343
C52   C     C_3   0.940739 0.389693 0.445331 -0.266227
C53   C     C_3   0.054480 0.401326 0.554606 -0.259221
C54   C     C_3   0.440739 0.889692 0.445331 -0.266227
C55   C     C_3   0.554480 0.901326 0.554606 -0.259221
C56   C     C_3   0.009492 0.333028 0.430814 0.073627
C57   C     C_3   0.990531 0.331373 0.569535 0.066380
C58   C     C_3   0.509492 0.833028 0.430814 0.073627
C59   C     C_R   0.738967 0.023411 0.361065 0.552655
C60   C     C_3   0.490531 0.831373 0.569535 0.066380
C61   C     C_3   0.814298 0.016094 0.045035 -0.227419
C62   C     C_3   0.185644 0.015956 0.954750 -0.227074
C63   C     C_3   0.314298 0.516094 0.045035 -0.227419
C64   C     C_3   0.685644 0.515956 0.954750 -0.227074
C65   C     C_R   0.773408 0.117744 0.651080 0.558557
C66   C     C_R   0.224368 0.123972 0.351438 0.568416
C67   C     C_R   0.273408 0.617744 0.651080 0.558557
C68   C     C_R   0.724368 0.623972 0.351438 0.568416
C69   C     C_3   0.819590 0.031632 0.965790 -0.225632
C70   C     C_3   0.808274 0.136672 0.450140 -0.268134
C71   C     C_3   0.180362 0.031157 0.034040 -0.226870
C72   C     C_3   0.319590 0.531632 0.965790 -0.225632
C73   C     C_3   0.680362 0.531157 0.034040 -0.226870
C74   C     C_3   0.683554 0.030091 0.031137 -0.215776
C75   C     C_3   0.316435 0.029902 0.968495 -0.215712
C76   C     C_3   0.183555 0.530091 0.031137 -0.215776
C77   C     C_3   0.816435 0.529902 0.968495 -0.215712
C78   C     C_3   0.753923 0.203225 0.062261 -0.259926
C79   C     C_3   0.245993 0.203257 0.938812 -0.261123
C80   C     C_3   0.253923 0.703225 0.062261 -0.259926
C81   C     C_3   0.183905 0.120791 0.552586 -0.262752
C82   C     C_3   0.745993 0.703257 0.938812 -0.261123
C83   C     C_3   0.747533 0.070626 0.074819 0.060561
C84   C     C_3   0.252415 0.070737 0.925286 0.061173
C85   C     C_3   0.247533 0.570626 0.074819 0.060561
C86   C     C_3   0.752415 0.570737 0.925286 0.061173
C87   C     C_3   0.759546 0.105948 0.936118 0.062021
C88   C     C_3   0.240448 0.105251 0.064077 0.061594
C89   C     C_3   0.259546 0.605948 0.936118 0.062021
C90   C     C_3   0.740448 0.605251 0.064077 0.061594
C91   C     C_3   0.695759 0.031575 0.949140 -0.260088
C92   C     C_3   0.308274 0.636672 0.450140 -0.268133
C93   C     C_3   0.304257 0.030881 0.050497 -0.260886
C94   C     C_3   0.195759 0.531575 0.949140 -0.260088
C95   C     C_3   0.804257 0.530881 0.050497 -0.260886
C96   C     C_3   0.748710 0.222512 0.980257 -0.219590
C97   C     C_3   0.251315 0.222038 0.020917 -0.218510
C98   C     C_3   0.248710 0.722512 0.980257 -0.219590
C99   C     C_3   0.751315 0.722038 0.020917 -0.218510
C100  C     C_3   0.004552 0.477195 0.040316 -0.226894
C101  C     C_3   0.995522 0.477405 0.960258 -0.227899
C102  C     C_3   0.504552 0.977195 0.040316 -0.226894
C103  C     C_3   0.683906 0.620791 0.552586 -0.262753
C104  C     C_3   0.495522 0.977405 0.960258 -0.227899
C105  C     C_3   0.064186 0.275038 0.025881 -0.214170
C106  C     C_3   0.935923 0.275313 0.973455 -0.213308
C107  C     C_3   0.564186 0.775038 0.025881 -0.214170
C108  C     C_3   0.435923 0.775313 0.973455 -0.213308
C109  C     C_3   0.941728 0.292414 0.055326 -0.262301
C110  C     C_3   0.058398 0.292673 0.944131 -0.262075
C111  C     C_3   0.441728 0.792414 0.055326 -0.262301
C112  C     C_3   0.558398 0.792673 0.944131 -0.262075
C113  C     C_R   0.970177 0.341619 0.645686 0.530771
C114  C     C_3   0.748785 0.053857 0.437709 0.032906
C115  C     C_R   0.030446 0.342216 0.354814 0.534867
C116  C     C_R   0.470177 0.841619 0.645686 0.530771
C117  C     C_R   0.530446 0.842216 0.354814 0.534867
C118  C     C_3   0.010944 0.349832 0.069191 0.062436
C119  C     C_3   0.989160 0.350247 0.930644 0.062644
C120  C     C_3   0.510944 0.849832 0.069191 0.062436
C121  C     C_3   0.489160 0.850247 0.930644 0.062644
C122  C     C_R   0.760430 0.534252 0.848776 0.536453
C123  C     C_R   0.239505 0.533890 0.151178 0.538092
C124  C     C_R   0.260430 0.034252 0.848776 0.536453
Cr1   Cr    Cr6+3 0.885690 0.492860 0.745310 1.005301
Cr2   Cr    Cr6+3 0.111880 0.178590 0.246990 1.001235
Cr3   Cr    Cr6+3 0.388120 0.678590 0.753010 1.009035
Cr4   Cr    Cr6+3 0.611880 0.678590 0.246990 1.001235
Cr5   Cr    Cr6+3 0.114310 0.492860 0.254690 1.004776
Cr6   Cr    Cr6+3 0.385690 0.992860 0.745310 1.005301
Cr7   Cr    Cr6+3 0.614310 0.992860 0.254690 1.004776
Cr8   Cr    Cr6+3 0.729880 0.332270 0.748190 0.989161
Cr9   Cr    Cr6+3 0.270120 0.332270 0.251810 0.990324
Cr10  Cr    Cr6+3 0.229880 0.832270 0.748190 0.989161
Cr11  Cr    Cr6+3 0.770120 0.832270 0.251810 0.990325
Cr12  Cr    Cr6+3 0.888120 0.178590 0.753010 1.009035
H1    H     H_    0.638053 0.085397 0.448940 0.131598
H2    H     H_    0.212723 0.875387 0.540431 0.136743
H3    H     H_    0.539351 0.022857 0.934930 0.115439
H4    H     H_    0.615757 0.785081 0.045437 0.110967
H5    H     H_    0.384329 0.785370 0.954006 0.111030
H6    H     H_    0.115757 0.285081 0.045437 0.110967
H7    H     H_    0.884329 0.285370 0.954006 0.111030
H8    H     H_    0.600094 0.849016 0.924043 0.108639
H9    H     H_    0.400030 0.848655 0.075901 0.109125
H10   H     H_    0.100094 0.349015 0.924043 0.108639
H11   H     H_    0.900030 0.348655 0.075901 0.109125
H12   H     H_    0.938262 0.206301 0.082925 0.109837
H13   H     H_    0.316244 0.406965 0.455208 0.137177
H14   H     H_    0.061925 0.206725 0.915822 0.110026
H15   H     H_    0.438262 0.706301 0.082925 0.109837
H16   H     H_    0.561925 0.706725 0.915822 0.110026
H17   H     H_    0.949317 0.182496 0.962411 0.121879
H18   H     H_    0.050826 0.182153 0.036125 0.120927
H19   H     H_    0.449317 0.682496 0.962411 0.121879
H20   H     H_    0.550826 0.682153 0.036125 0.120927
H21   H     H_    0.652834 0.050981 0.573734 0.100767
H22   H     H_    0.348207 0.089236 0.432118 0.095371
H23   H     H_    0.152834 0.550981 0.573734 0.100767
H24   H     H_    0.712723 0.375387 0.540431 0.136743
H25   H     H_    0.848207 0.589236 0.432118 0.095371
H26   H     H_    0.729854 0.872359 0.466042 0.077799
H27   H     H_    0.299498 0.913445 0.522202 0.067651
H28   H     H_    0.229854 0.372359 0.466042 0.077799
H29   H     H_    0.799498 0.413445 0.522202 0.067651
H30   H     H_    0.731012 0.904958 0.583797 0.103295
H31   H     H_    0.284986 0.928893 0.410561 0.112644
H32   H     H_    0.231012 0.404958 0.583797 0.103295
H33   H     H_    0.784987 0.428893 0.410561 0.112644
H34   H     H_    0.855227 0.095517 0.429066 0.115153
H35   H     H_    0.036333 0.141717 0.434252 0.113967
H36   H     H_    0.141737 0.063820 0.571776 0.126751
H37   H     H_    0.355227 0.595517 0.429066 0.115153
H38   H     H_    0.641737 0.563820 0.571776 0.126751
H39   H     H_    0.801007 0.220852 0.421308 0.127419
H40   H     H_    0.182291 0.204426 0.583548 0.103636
H41   H     H_    0.301007 0.720852 0.421308 0.127419
H42   H     H_    0.682291 0.704426 0.583548 0.103637
H43   H     H_    0.797605 0.245159 0.543806 0.101946
H44   H     H_    0.166768 0.235553 0.461285 0.097184
H45   H     H_    0.297605 0.745159 0.543806 0.101946
H46   H     H_    0.968764 0.138191 0.563309 0.119790
H47   H     H_    0.666768 0.735553 0.461285 0.097184
H48   H     H_    0.901754 0.978755 0.517240 0.088864
H49   H     H_    0.902075 0.821889 0.527549 0.094141
H50   H     H_    0.938311 0.914654 0.594524 0.141967
H51   H     H_    0.086227 0.954668 0.400411 0.145087
H52   H     H_    0.116334 0.913661 0.489101 0.082711
H53   H     H_    0.095372 0.806657 0.423079 0.111816
H54   H     H_    0.401754 0.478755 0.517240 0.088864
H55   H     H_    0.402075 0.321889 0.527549 0.094141
H56   H     H_    0.438311 0.414654 0.594524 0.141967
H57   H     H_    0.536333 0.641717 0.434252 0.113967
H58   H     H_    0.586227 0.454668 0.400411 0.145087
H59   H     H_    0.616334 0.413661 0.489101 0.082711
H60   H     H_    0.595372 0.306657 0.423079 0.111816
H61   H     H_    0.468764 0.638191 0.563309 0.119790
H62   H     H_    0.953072 0.168863 0.441940 0.101821
H63   H     H_    0.053973 0.175061 0.560236 0.110948
H64   H     H_    0.453072 0.668863 0.441940 0.101821
H65   H     H_    0.358947 0.118161 0.554644 0.136162
H66   H     H_    0.553973 0.675061 0.560236 0.110948
H67   H     H_    0.615135 0.893194 0.456968 0.110277
H68   H     H_    0.387945 0.837099 0.541056 0.107308
H69   H     H_    0.115135 0.393194 0.456968 0.110277
H70   H     H_    0.887945 0.337099 0.541056 0.107308
H71   H     H_    0.599967 0.859816 0.579266 0.095384
H72   H     H_    0.398840 0.841859 0.417959 0.097605
H73   H     H_    0.099967 0.359816 0.579266 0.095384
H74   H     H_    0.898840 0.341859 0.417959 0.097605
H75   H     H_    0.940168 0.481278 0.425014 0.119671
H76   H     H_    0.138053 0.585397 0.448940 0.131598
H77   H     H_    0.048869 0.491468 0.577343 0.130781
H78   H     H_    0.440168 0.981278 0.425014 0.119671
H79   H     H_    0.548869 0.991468 0.577343 0.130781
H80   H     H_    0.924745 0.480204 0.544308 0.139329
H81   H     H_    0.049539 0.501204 0.461040 0.129550
H82   H     H_    0.424745 0.980204 0.544308 0.139329
H83   H     H_    0.549539 0.001204 0.461040 0.129550
H84   H     H_    0.818656 0.922484 0.057056 0.136543
H85   H     H_    0.181366 0.922279 0.942109 0.137925
H86   H     H_    0.318656 0.422484 0.057056 0.136543
H87   H     H_    0.858947 0.618162 0.554644 0.136162
H88   H     H_    0.681365 0.422279 0.942109 0.137925
H89   H     H_    0.687747 0.207064 0.453184 0.190615
H90   H     H_    0.297047 0.226548 0.556493 0.190559
H91   H     H_    0.187747 0.707064 0.453184 0.190615
H92   H     H_    0.797047 0.726548 0.556493 0.190559
H93   H     H_    0.859211 0.056986 0.071487 0.116370
H94   H     H_    0.140678 0.056898 0.928636 0.116259
H95   H     H_    0.359211 0.556986 0.071487 0.116370
H96   H     H_    0.640678 0.556898 0.928636 0.116259
H97   H     H_    0.869093 0.070228 0.953893 0.133742
H98   H     H_    0.864567 0.147149 0.550540 0.142758
H99   H     H_    0.130850 0.069762 0.046295 0.134176
H100  H     H_    0.369093 0.570229 0.953893 0.133742
H101  H     H_    0.630850 0.569762 0.046295 0.134176
H102  H     H_    0.820798 0.943770 0.939369 0.118569
H103  H     H_    0.179207 0.943203 0.059836 0.118223
H104  H     H_    0.320798 0.443770 0.939369 0.118569
H105  H     H_    0.679207 0.443203 0.059836 0.118223
H106  H     H_    0.662829 0.947336 0.049912 0.111035
H107  H     H_    0.337121 0.947283 0.948853 0.111586
H108  H     H_    0.162829 0.447336 0.049912 0.111035
H109  H     H_    0.131150 0.102537 0.455931 0.135615
H110  H     H_    0.837121 0.447283 0.948853 0.111586
H111  H     H_    0.702978 0.941231 0.928133 0.109788
H112  H     H_    0.297055 0.940450 0.070767 0.110448
H113  H     H_    0.202978 0.441231 0.928133 0.109788
H114  H     H_    0.797055 0.440450 0.070767 0.110448
H115  H     H_    0.712565 0.251464 0.090568 0.114009
H116  H     H_    0.287304 0.251589 0.910820 0.112689
H117  H     H_    0.212565 0.751464 0.090568 0.114009
H118  H     H_    0.787304 0.751589 0.910820 0.112689
H119  H     H_    0.802989 0.236574 0.083298 0.109707
H120  H     H_    0.364567 0.647149 0.550540 0.142758
H121  H     H_    0.196883 0.236663 0.918148 0.109312
H122  H     H_    0.302989 0.736574 0.083298 0.109707
H123  H     H_    0.696883 0.736663 0.918148 0.109312
H124  H     H_    0.780156 0.294737 0.962292 0.107472
H125  H     H_    0.220088 0.294367 0.039709 0.107887
H126  H     H_    0.280156 0.794737 0.962292 0.107472
H127  H     H_    0.720088 0.794367 0.039709 0.107887
H128  H     H_    0.695642 0.250305 0.970006 0.116322
H129  H     H_    0.304447 0.249394 0.031374 0.116942
H130  H     H_    0.195642 0.750305 0.970006 0.116322
H131  H     H_    0.631150 0.602537 0.455931 0.135615
H132  H     H_    0.804447 0.749394 0.031374 0.116942
H133  H     H_    0.643871 0.096771 0.042216 0.119802
H134  H     H_    0.356062 0.096669 0.957888 0.119873
H135  H     H_    0.143871 0.596771 0.042216 0.119802
H136  H     H_    0.856062 0.596669 0.957888 0.119873
H137  H     H_    0.670168 0.202536 0.571085 0.142885
H138  H     H_    0.316581 0.230659 0.435233 0.145257
H139  H     H_    0.170168 0.702536 0.571085 0.142885
H140  H     H_    0.816581 0.730659 0.435233 0.145257
H141  H     H_    0.651318 0.070508 0.921188 0.110235
H142  H     H_    0.816244 0.906965 0.455208 0.137177
H143  H     H_    0.348693 0.069633 0.078750 0.110302
H144  H     H_    0.151318 0.570508 0.921188 0.110235
H145  H     H_    0.848693 0.569633 0.078750 0.110302
H146  H     H_    0.048332 0.531394 0.054214 0.133069
H147  H     H_    0.951759 0.531644 0.946688 0.132454
H148  H     H_    0.548332 0.031394 0.054214 0.133069
H149  H     H_    0.451759 0.031644 0.946688 0.132454
H150  H     H_    0.960738 0.522654 0.065963 0.115778
H151  H     H_    0.039351 0.522857 0.934930 0.115439
H152  H     H_    0.460738 0.022654 0.065963 0.115778
O1    O     O_R   0.957210 0.449410 0.665480 -0.534265
O2    O     O_R   0.167480 0.095300 0.164000 -0.530187
O3    O     O_R   0.332520 0.595300 0.836000 -0.532221
O4    O     O_R   0.667480 0.595300 0.164000 -0.530187
O5    O     O_R   0.946380 0.253940 0.826940 -0.514739
O6    O     O_R   0.053620 0.253940 0.173060 -0.513771
O7    O     O_R   0.446380 0.753940 0.826940 -0.514739
O8    O     O_R   0.553620 0.753940 0.173060 -0.513771
O9    O     O_3   0.834560 0.334570 0.748840 -0.279924
O10   O     O_3   0.165440 0.334570 0.251160 -0.280846
O11   O     O_3   0.334560 0.834570 0.748840 -0.279924
O12   O     O_R   0.042790 0.449410 0.334520 -0.534364
O13   O     O_3   0.665440 0.834570 0.251160 -0.280846
O14   O     O_R   0.820730 0.541240 0.668250 -0.502631
O15   O     O_R   0.179270 0.541240 0.331750 -0.500760
O16   O     O_R   0.320730 0.041240 0.668250 -0.502631
O17   O     O_R   0.679270 0.041240 0.331750 -0.500760
O18   O     O_R   0.714240 0.455060 0.663710 -0.536211
O19   O     O_R   0.285760 0.455060 0.336290 -0.539179
O20   O     O_R   0.214240 0.955060 0.663710 -0.536211
O21   O     O_R   0.785760 0.955060 0.336290 -0.539178
O22   O     O_R   0.736780 0.204870 0.675910 -0.531727
O23   O     O_R   0.457210 0.949410 0.665480 -0.534265
O24   O     O_R   0.263220 0.204870 0.324090 -0.529321
O25   O     O_R   0.236780 0.704870 0.675910 -0.531727
O26   O     O_R   0.763220 0.704870 0.324090 -0.529321
O27   O     O_R   0.833070 0.087590 0.673490 -0.463899
O28   O     O_R   0.166930 0.087590 0.326510 -0.485520
O29   O     O_R   0.333070 0.587590 0.673490 -0.463899
O30   O     O_R   0.666930 0.587590 0.326510 -0.485521
O31   O     O_R   0.946890 0.246800 0.676300 -0.515549
O32   O     O_R   0.053110 0.246800 0.323700 -0.519194
O33   O     O_R   0.446890 0.746800 0.676300 -0.515549
O34   O     O_R   0.542790 0.949410 0.334520 -0.534364
O35   O     O_R   0.553110 0.746800 0.323700 -0.519194
O36   O     O_R   0.956650 0.457120 0.827980 -0.531260
O37   O     O_R   0.043350 0.457120 0.172020 -0.531518
O38   O     O_R   0.456650 0.957120 0.827980 -0.531260
O39   O     O_R   0.543350 0.957120 0.172020 -0.531518
O40   O     O_R   0.820220 0.548390 0.818890 -0.505988
O41   O     O_R   0.179780 0.548390 0.181110 -0.505518
O42   O     O_R   0.320220 0.048390 0.818890 -0.505988
O43   O     O_R   0.679780 0.048390 0.181110 -0.505518
O44   O     O_R   0.713680 0.462770 0.826210 -0.532659
O45   O     O_R   0.736260 0.212010 0.826560 -0.511573
O46   O     O_R   0.286320 0.462770 0.173790 -0.532453
O47   O     O_R   0.213680 0.962770 0.826210 -0.532659
O48   O     O_R   0.786320 0.962770 0.173790 -0.532453
O49   O     O_3   0.833632 0.908102 0.594644 -0.556943
O50   O     O_3   0.185818 0.892803 0.401955 -0.565980
O51   O     O_3   0.333632 0.408102 0.594644 -0.556943
O52   O     O_3   0.685818 0.392803 0.401954 -0.565980
O53   O     O_R   0.263740 0.212010 0.173440 -0.510480
O54   O     O_R   0.236260 0.712010 0.826560 -0.511573
O55   O     O_R   0.763740 0.712010 0.173440 -0.510480
O56   O     O_R   0.832520 0.095300 0.836000 -0.532221

loop_
_geom_bond_atom_site_label_1
_geom_bond_atom_site_label_2
_ccdc_geom_bond_type
C105  C110  S    
C87   C91   S    
C107  C112  S    
C74   C83   S    
Cr2   O28   S    
C90   C95   S    
C4    C87   S    
C45   H64   S    
C47   H81   S    
C41   H120  S    
C10   O38   A    
C26   H49   S    
C8    O5    A    
C11   C120  S    
Cr12  O31   S    
C113  O1    A    
C14   H65   S    
C28   H56   S    
C36   H32   S    
Cr4   O8    S    
C62   H85   S    
C89   C94   S    
Cr9   O19   S    
C76   C94   S    
C40   H44   S    
C5    C88   S    
C123  O46   A    
C78   C96   S    
C2    C22   S    
C4    O56   A    
C88   C97   S    
C6    O54   A    
C97   H125  S    
C47   C53   S    
C23   H13   S    
C99   H127  S    
C63   C85   S    
C52   H74   S    
C17   C30   S    
C63   H86   S    
C19   C32   S    
C109  C118  S    
C51   H82   S    
C47   H69   S    
C81   H40   S    
Cr8   O45   S    
C59   O21   A    
C45   C46   S    
C72   H100  S    
Cr1   O40   S    
C15   H91   S    
C101  C119  S    
C43   C44   S    
C20   H140  S    
Cr7   O43   S    
C7    O4    A    
C44   C57   S    
C16   C20   S    
C106  H17   S    
Cr9   O53   S    
C77   H136  S    
C27   H51   S    
C20   C33   S    
C97   H129  S    
C3    C83   S    
C105  C118  S    
C107  C120  S    
C51   H68   S    
C75   C93   S    
C38   H33   S    
Cr3   O7    S    
C54   H78   S    
C16   H92   S    
C43   H35   S    
C46   C60   S    
C79   C97   S    
C7    O55   A    
C110  H14   S    
C17   H137  S    
Cr4   O35   S    
C33   C38   S    
C108  C111  S    
C68   O30   A    
C19   H23   S    
Cr4   O13   S    
C108  H19   S    
C85   C123  S    
C58   C117  S    
C2    C14   S    
C93   H143  S    
Cr11  O21   S    
C94   H144  S    
C71   C88   S    
C74   H106  S    
C49   H70   S    
C23   C36   S    
C2    C81   S    
C18   C31   S    
C76   C85   S    
Cr1   O1    S    
Cr2   O6    S    
C79   H116  S    
C42   C103  S    
C40   H109  S    
C33   C42   S    
C32   C36   S    
C73   C90   S    
C8    O36   A    
C55   H79   S    
C79   C84   S    
C75   C84   S    
C76   H135  S    
C100  H150  S    
C50   H83   S    
C107  H4    S    
C49   C57   S    
C13   C23   S    
C102  H152  S    
C69   H97   S    
Cr10  O20   S    
C35   O50   S    
C95   H145  S    
C64   C73   S    
C71   H99   S    
C17   H21   S    
Cr9   O24   S    
Cr10  O11   S    
C122  O40   A    
C4    O45   A    
C96   H128  S    
Cr2   O2    S    
C9    C118  S    
C109  H11   S    
C116  O33   A    
C95   H114  S    
C12   C114  S    
Cr12  O27   S    
C99   H132  S    
C30   C34   S    
C79   H121  S    
C122  O44   A    
C105  H6    S    
C66   O24   A    
C57   C113  S    
C117  O34   A    
C29   H59   S    
C7    C90   S    
C124  O42   A    
C103  H38   S    
C15   H76   S    
C25   C38   S    
C98   H126  S    
C32   C67   S    
C54   H72   S    
C37   O19   A    
C1    O14   A    
C60   C116  S    
C28   H55   S    
C90   C99   S    
C59   O17   A    
Cr12  O9    S    
C63   H95   S    
C23   H28   S    
C62   C84   S    
C53   H77   S    
C21   H26   S    
Cr1   O36   S    
Cr6   O16   S    
Cr7   O13   S    
Cr8   O18   S    
Cr12  O56   S    
C110  C119  S    
Cr7   O39   S    
C65   O27   A    
C75   H134  S    
C66   O28   A    
C55   H71   S    
Cr4   O30   S    
C89   C98   S    
C24   C103  S    
C112  C121  S    
C28   O51   S    
C26   H50   S    
C98   H130  S    
C100  C101  S    
C30   C39   S    
Cr3   O33   S    
C30   C65   S    
C92   H41   S    
Cr9   O10   S    
Cr3   O11   S    
C116  O23   A    
Cr4   O4    S    
C1    C24   S    
C51   C60   S    
C42   H131  S    
C110  H10   S    
C33   C68   S    
C47   C56   S    
C18   H138  S    
C106  C109  S    
C67   O29   A    
C106  C119  S    
C82   C99   S    
Cr10  O54   S    
C108  C121  S    
C5    O2    A    
C106  H7    S    
C50   H67   S    
C15   C19   S    
C14   H90   S    
C26   O49   S    
C115  O32   A    
C31   C40   S    
C64   H88   S    
C77   H110  S    
C91   H141  S    
Cr9   O46   S    
Cr6   O38   S    
C78   C83   S    
C12   C17   S    
C86   C122  S    
C61   H93   S    
C112  H16   S    
C38   O52   S    
C69   H102  S    
C69   C87   S    
Cr7   O17   S    
C124  O47   A    
C55   C60   S    
C78   H115  S    
C41   H45   S    
C64   C86   S    
C108  H5    S    
C45   H57   S    
C91   H111  S    
C45   C58   S    
C80   H117  S    
C101  H147  S    
C50   C58   S    
C102  H148  S    
C61   C83   S    
C64   H96   S    
C53   C57   S    
C46   H61   S    
C21   C34   S    
C25   H29   S    
C82   C86   S    
Cr11  O55   S    
C115  O12   A    
C71   H103  S    
C74   C91   S    
C80   C85   S    
C18   H22   S    
Cr1   O9    S    
C39   H43   S    
Cr6   O42   S    
C96   H124  S    
C49   C52   S    
C25   H24   S    
Cr10  O25   S    
C117  O35   A    
C34   O49   S    
C13   C92   S    
C42   H47   S    
C31   C35   S    
C80   H122  S    
C78   H119  S    
C29   H60   S    
C44   H46   S    
C102  C120  S    
C6    O3    A    
Cr5   O15   S    
C80   C98   S    
C82   H123  S    
Cr5   O37   S    
C28   H54   S    
C39   H98   S    
C3    O43   A    
C22   H2    S    
C104  H3    S    
Cr6   O11   S    
C2    C48   S    
C103  H42   S    
C70   H34   S    
C21   H142  S    
Cr2   O32   S    
Cr3   O29   S    
C59   C114  S    
C56   C115  S    
C43   H62   S    
C27   H52   S    
Cr12  O5    S    
C20   H25   S    
C46   H66   S    
C73   H105  S    
C63   C72   S    
C53   H73   S    
C82   H118  S    
C16   H87   S    
Cr8   O22   S    
C34   H30   S    
C31   C66   S    
C37   O15   A    
C22   H27   S    
C14   C18   S    
C61   H84   S    
C10   C121  S    
Cr5   O41   S    
C70   C114  S    
C22   C35   S    
C49   H80   S    
C101  H151  S    
Cr10  O47   S    
C76   H108  S    
C65   O22   A    
C111  H9    S    
Cr8   O44   S    
C123  O41   A    
C29   H58   S    
Cr5   O10   S    
C81   H36   S    
C27   O50   S    
C19   H139  S    
C67   O25   A    
Cr11  O48   S    
C62   C71   S    
C52   H75   S    
C35   H31   S    
C72   H104  S    
C70   H39   S    
C13   C37   S    
C107  H20   S    
C104  H149  S    
C105  H18   S    
C16   C24   S    
Cr11  O13   S    
C9    O6    A    
C74   H133  S    
Cr6   O23   S    
C11   O8    A    
Cr8   O9    S    
Cr7   O34   S    
C48   O20   A    
C24   C25   S    
Cr3   O3    S    
C104  C121  S    
C62   H94   S    
C77   C95   S    
C111  C120  S    
C73   H101  S    
C93   H112  S    
Cr11  O26   S    
C32   C41   S    
C87   C96   S    
C68   O26   A    
C102  C104  S    
C44   H63   S    
Cr1   O14   S    
C9    O37   A    
C77   C86   S    
C13   C15   S    
C11   O39   A    
C109  H12   S    
C36   O51   S    
C94   H113  S    
C54   C58   S    
C61   C69   S    
C88   C93   S    
C40   C81   S    
C21   C114  S    
C48   O16   A    
C111  H15   S    
Cr2   O10   S    
C92   H37   S    
C84   C124  S    
C6    C89   S    
C1    O18   A    
Cr5   O12   S    
C50   C55   S    
C51   C54   S    
C5    O53   A    
C112  H8    S    
C72   C89   S    
C12   H89   S    
C113  O31   A    
C3    O48   A    
C39   C70   S    
C75   H107  S    
C43   C56   S    
C41   C92   S    
C100  C118  S    
C8    C119  S    
C29   O52   S    
C100  H146  S    
C12   H1    S    
C27   H53   S    
C52   C56   S    
C10   O7    A    
C26   H48   S    
