data_str_m9_o11_o18_f0_sra.sym.185
_audit_creation_date              2012-12-11T14:21:11-0500
_audit_creation_method            fapswitch 2.2
_symmetry_space_group_name_H-M    P1
_symmetry_Int_Tables_number       1
_space_group_crystal_system       triclinic
_cell_length_a                    21.989343
_cell_length_b                    7.198057
_cell_length_c                    14.945484
_cell_angle_alpha                 90.208475
_cell_angle_beta                  107.2345
_cell_angle_gamma                 90.080785
_cell_volume                      2259.34251951

loop_
_atom_site_label
_atom_site_type_symbol
_atom_type_description
_atom_site_fract_x
_atom_site_fract_y
_atom_site_fract_z
_atom_type_partial_charge
O1    O     O_R   0.584770 0.505770 0.002090 -0.544017
O2    O     O_R   0.415230 0.005770 0.997910 -0.543437
O3    O     O_R   0.467060 0.173340 0.861950 -0.532653
O4    O     O_R   0.532940 0.673340 0.138050 -0.540669
C1    C     C_R   0.455098 0.344062 0.825990 0.717964
C2    C     C_R   0.544639 0.844958 0.174050 0.678949
O5    O     O_R   0.587510 0.175890 0.993210 -0.537358
O6    O     O_R   0.412490 0.675890 0.006790 -0.541017
O7    O     O_R   0.536540 0.008150 0.130100 -0.533538
O8    O     O_R   0.463460 0.508150 0.869900 -0.543002
C3    C     C_R   0.613262 0.344939 0.999941 0.746488
C4    C     C_R   0.386661 0.844632 0.999563 0.726168
O9    O     O_3   0.483140 0.340040 0.044760 -0.378924
O10   O     O_3   0.516860 0.840040 0.955240 -0.377523
V1    V     V_3+5 0.503130 0.064190 0.991700 1.434159
V2    V     V_3+5 0.496870 0.564190 0.008300 1.412393
C5    C     C_2   0.210651 0.730570 0.982065 0.339652
C6    C     C_2   0.788823 0.230967 0.016091 0.340055
C7    C     C_2   0.182375 0.884642 0.005976 0.169496
C8    C     C_2   0.817370 0.384454 0.992493 0.171060
C9    C     C_2   0.281855 0.719131 0.002207 -0.249554
C10   C     C_2   0.717566 0.219925 0.995475 -0.242719
C11   C     C_2   0.317660 0.859627 0.986802 -0.309774
C12   C     C_2   0.682138 0.360547 0.011716 -0.306040
H1    H     H_    0.304405 0.586726 0.025843 0.146662
H2    H     H_    0.694715 0.087487 0.971535 0.145723
H3    H     H_    0.295405 0.990143 0.959190 0.179906
H4    H     H_    0.704664 0.491247 0.039536 0.175103
C13   C     C_R   0.927588 0.883997 0.723861 -0.080363
C14   C     C_R   0.072029 0.389794 0.276353 -0.045483
C15   C     C_R   0.571770 0.857600 0.275883 -0.060509
C16   C     C_R   0.426956 0.352613 0.724396 -0.037747
C17   C     C_R   0.937174 0.841357 0.568185 -0.142080
C18   C     C_R   0.062156 0.411738 0.432887 -0.190230
C19   C     C_R   0.965880 0.857585 0.664495 0.182142
C20   C     C_R   0.033429 0.406828 0.335748 0.194407
C21   C     C_R   0.861462 0.897072 0.686537 -0.261237
C22   C     C_R   0.138227 0.380821 0.313453 -0.281870
C23   C     C_R   0.831511 0.884520 0.588900 0.084141
C24   C     C_R   0.168200 0.392623 0.411061 0.085200
C25   C     C_R   0.870731 0.852659 0.530245 0.079483
C26   C     C_R   0.128691 0.403910 0.470573 0.106385
C27   C     C_R   0.764055 0.898821 0.547986 0.073021
C28   C     C_R   0.235883 0.392200 0.451309 0.072150
C29   C     C_R   0.736624 0.869309 0.449467 0.072164
C30   C     C_R   0.262853 0.388342 0.550907 0.070421
C31   C     C_R   0.777959 0.836833 0.394389 -0.186639
C32   C     C_R   0.221251 0.398200 0.607055 -0.189795
C33   C     C_R   0.843522 0.830753 0.434082 -0.199209
C34   C     C_R   0.155720 0.408028 0.567431 -0.180308
C35   C     C_R   0.723265 0.944429 0.602126 -0.201863
C36   C     C_R   0.277440 0.399618 0.395229 -0.201546
C37   C     C_R   0.657768 0.951503 0.562781 -0.198660
C38   C     C_R   0.342948 0.390910 0.434269 -0.191421
C39   C     C_R   0.630081 0.916497 0.467704 0.089919
C40   C     C_R   0.369941 0.376625 0.530770 0.108842
C41   C     C_R   0.668840 0.875699 0.409383 0.083525
C42   C     C_R   0.330547 0.376952 0.590752 0.086374
C43   C     C_R   0.563613 0.925565 0.430450 -0.170696
C44   C     C_R   0.436412 0.363617 0.567564 -0.197556
C45   C     C_R   0.533874 0.897313 0.334975 0.200720
C46   C     C_R   0.465367 0.351595 0.664361 0.196177
C47   C     C_R   0.638006 0.844841 0.313053 -0.257175
C48   C     C_R   0.360701 0.364592 0.688230 -0.272203
H5    H     H_    0.873329 0.806401 0.389019 0.126793
H6    H     H_    0.125773 0.417741 0.613281 0.132520
H7    H     H_    0.663953 0.813790 0.264004 0.102650
H8    H     H_    0.334309 0.362054 0.738509 0.101812
H9    H     H_    0.628458 0.986214 0.607398 0.132513
H10   H     H_    0.372850 0.395640 0.388194 0.129889
H11   H     H_    0.966948 0.818573 0.522866 0.135286
H12   H     H_    0.032569 0.422719 0.479232 0.118057
H13   H     H_    0.834868 0.912282 0.736190 0.111158
H14   H     H_    0.164771 0.364552 0.263794 0.109925
H15   H     H_    0.761436 0.817359 0.319673 0.115707
H16   H     H_    0.237676 0.401974 0.682388 0.115935
H17   H     H_    0.740455 0.979306 0.675409 0.123153
H18   H     H_    0.260888 0.416581 0.320449 0.124590
H19   H     H_    0.534445 0.957476 0.475667 0.131796
H20   H     H_    0.465824 0.363378 0.520743 0.118487
O11   O     O_R   0.036450 0.233070 0.130130 -0.545122
O12   O     O_R   0.963550 0.733070 0.869870 -0.542350
O13   O     O_R   0.912470 0.560570 0.006790 -0.534405
O14   O     O_R   0.087530 0.060570 0.993210 -0.535720
C49   C     C_R   0.886809 0.391449 0.001863 0.672411
C50   C     C_R   0.113134 0.891553 0.997772 0.657732
O15   O     O_R   0.032920 0.562940 0.138050 -0.537233
O16   O     O_R   0.967080 0.062940 0.861950 -0.545634
O17   O     O_R   0.084790 0.730500 0.002090 -0.518117
O18   O     O_R   0.915210 0.230500 0.997910 -0.517812
C51   C     C_R   0.044512 0.394880 0.174537 0.726976
C52   C     C_R   0.955337 0.893964 0.825533 0.684937
O19   O     O_3   0.016820 0.396170 0.955260 -0.372775
O20   O     O_3   0.983180 0.896170 0.044740 -0.368467
V3    V     V_3+5 0.996880 0.672090 0.008300 1.483536
V4    V     V_3+5 0.003120 0.172090 0.991700 1.468878
O21   O     O_3   0.173004 0.574235 0.948671 -0.549212
C53   C     C_3   0.194248 0.475704 0.881537 0.112967
H21   H     H_    0.236444 0.389756 0.916919 0.139483
H22   H     H_    0.206155 0.571271 0.830528 0.106038
C54   C     C_3   0.141767 0.345371 0.826821 -0.674459
H23   H     H_    0.158555 0.264116 0.775469 0.158724
H24   H     H_    0.128770 0.247398 0.875195 0.248459
H25   H     H_    0.099011 0.426075 0.788751 0.205042
O22   O     O_3   0.826537 0.075794 0.050190 -0.550813
C55   C     C_3   0.802715 0.969509 0.111888 0.090412
H26   H     H_    0.763426 0.877765 0.071190 0.147582
H27   H     H_    0.785657 0.059049 0.160571 0.106967
C56   C     C_3   0.855628 0.846948 0.171022 -0.634329
H28   H     H_    0.836517 0.754742 0.215700 0.154488
H29   H     H_    0.875331 0.759362 0.125207 0.256109
H30   H     H_    0.894366 0.934278 0.216404 0.199596
N1    N     N_3   0.033831 0.845831 0.700548 -0.677636
H31   H     H_    0.050720 0.968598 0.737172 0.219293
H32   H     H_    0.045191 0.735785 0.747999 0.225606
N2    N     N_3   0.965449 0.420284 0.296904 -0.687092
H33   H     H_    0.948847 0.292319 0.265774 0.219312
H34   H     H_    0.944095 0.441261 0.350017 0.226352
O23   O     O_3   0.218044 0.042747 0.039111 -0.564060
C57   C     C_3   0.238368 0.038996 0.137967 0.107993
H35   H     H_    0.257810 0.900554 0.165627 0.111080
H36   H     H_    0.198136 0.074911 0.165721 0.116614
C58   C     C_3   0.291286 0.181297 0.173529 -0.701327
H37   H     H_    0.310611 0.171499 0.250831 0.184399
H38   H     H_    0.330517 0.153698 0.142575 0.229094
H39   H     H_    0.272642 0.323585 0.154092 0.213368
O24   O     O_3   0.781764 0.541557 0.958594 -0.565366
C59   C     C_3   0.766730 0.543161 0.860018 0.108250
H40   H     H_    0.744848 0.408998 0.828708 0.111871
H41   H     H_    0.810103 0.570894 0.838203 0.116814
C60   C     C_3   0.718742 0.696632 0.821723 -0.709761
H42   H     H_    0.704167 0.693573 0.744025 0.180682
H43   H     H_    0.675822 0.675725 0.845283 0.223166
H44   H     H_    0.740187 0.834158 0.846866 0.219274
N3    N     N_3   0.465640 0.913266 0.300752 -0.671357
H45   H     H_    0.448570 0.893822 0.228368 0.211067
H46   H     H_    0.446255 0.806030 0.330752 0.223591
N4    N     N_3   0.533414 0.337911 0.702147 -0.680974
H47   H     H_    0.549822 0.461392 0.738394 0.218058
H48   H     H_    0.554573 0.329040 0.648162 0.225495

loop_
_geom_bond_atom_site_label_1
_geom_bond_atom_site_label_2
_ccdc_geom_bond_type
O16   V4    S    
O4    V2    S    
C54   H23   S    
O15   C51   A    
C15   C45   A    
C18   C26   A    
C7    C50   S    
O2    C4    A    
C59   H40   S    
C2    O7    A    
O21   C53   S    
N3    H45   S    
C23   C25   A    
O5    C3    A    
C4    C11   S    
C29   C41   A    
C33   H5    S    
C48   H8    S    
O19   V4    S    
O14   C50   A    
C39   C43   A    
C56   H29   S    
C58   H38   S    
C55   H26   S    
C3    C12   S    
O12   C52   A    
N2    H33   S    
C14   C22   A    
C44   C46   A    
O14   V4    S    
C29   C31   A    
C32   H16   S    
C21   H13   S    
C17   C19   A    
O16   C52   A    
C28   C30   A    
O15   V3    S    
C11   H3    S    
C40   C42   A    
C18   C20   A    
C57   C58   S    
C1    C16   S    
C60   H44   S    
C32   C34   A    
C2    C15   S    
C7    O23   S    
O6    V2    S    
C30   C42   A    
C36   H18   S    
C25   C33   A    
C36   C38   A    
C41   C47   A    
C47   H7    S    
C37   C39   A    
C42   C48   A    
C49   O18   A    
C38   C40   A    
C43   C45   A    
C15   C47   A    
C58   H37   S    
C16   C48   A    
C8    O24   S    
O4    C2    A    
C56   H30   S    
C43   H19   S    
O11   V4    S    
C58   H39   S    
C23   C27   A    
O5    V1    S    
O3    C1    A    
C37   H9    S    
C5    C9    S    
C40   C44   A    
C35   C37   A    
O17   V3    S    
C35   H17   S    
C34   H6    S    
C38   H10   S    
O6    C4    A    
O13   V3    S    
C8    C49   S    
O1    V2    S    
C46   N4    S    
O2    V1    S    
C27   C29   A    
N4    H48   S    
C26   C34   A    
O13   C49   A    
C54   H25   S    
C53   H22   S    
C39   C41   A    
C10   C12   D    
O24   C59   S    
C20   N2    S    
C59   C60   S    
C18   H12   S    
O3    V1    S    
C57   H35   S    
C57   H36   S    
N1    H31   S    
C22   H14   S    
N3    H46   S    
C9    H1    S    
C44   H20   S    
O12   V3    S    
C6    C10   S    
C12   H4    S    
C14   C51   S    
C60   H43   S    
C50   O17   A    
C59   H41   S    
O23   C57   S    
O18   V4    S    
C31   C33   A    
C53   C54   S    
O22   C55   S    
C13   C19   A    
C14   C20   A    
C17   C25   A    
C9    C11   D    
O7    V1    S    
C6    O22   S    
C16   C46   A    
C1    O8    A    
C21   C23   A    
O8    V2    S    
C56   H28   S    
C22   C24   A    
C28   C36   A    
C55   H27   S    
C27   C35   A    
C24   C26   A    
C5    C7    D    
N2    H34   S    
C19   N1    S    
C6    C8    D    
C13   C52   S    
O20   V3    S    
N4    H47   S    
C17   H11   S    
C31   H15   S    
O11   C51   A    
C30   C32   A    
C24   C28   A    
C54   H24   S    
C53   H21   S    
C10   H2    S    
O9    V2    S    
C13   C21   A    
O10   V1    S    
O1    C3    A    
C5    O21   S    
C45   N3    S    
C60   H42   S    
N1    H32   S    
C55   C56   S    
