data_str_m3_o13_o22_f0_pcu.sym.169
_audit_creation_date              2012-12-10T17:33:51-0500
_audit_creation_method            fapswitch 2.2
_symmetry_space_group_name_H-M    P1
_symmetry_Int_Tables_number       1
_space_group_crystal_system       triclinic
_cell_length_a                    10.919715
_cell_length_b                    12.172209
_cell_length_c                    13.011411
_cell_angle_alpha                 93.417136
_cell_angle_beta                  92.671027
_cell_angle_gamma                 86.201571
_cell_volume                      1720.99107759

loop_
_atom_site_label
_atom_site_type_symbol
_atom_type_description
_atom_site_fract_x
_atom_site_fract_y
_atom_site_fract_z
_atom_type_partial_charge
C1    C     C_R   0.489659 0.521545 0.699759 0.866676
C2    C     C_3   0.122071 0.499260 0.506906 -0.294530
C3    C     C_3   0.070519 0.468401 0.389018 -0.066415
C4    C     C_3   0.067678 0.624366 0.543271 0.029422
C5    C     C_R   0.532853 0.465539 0.188960 -0.184640
C6    C     C_R   0.474903 0.534095 0.811299 -0.130054
C7    C     C_R   0.469490 0.648436 0.970152 0.101869
C8    C     C_R   0.460505 0.639026 0.862300 0.025223
C9    C     C_R   0.474927 0.439321 0.868763 0.003884
C10   C     C_R   0.503749 0.447513 0.974253 0.066340
C11   C     C_R   0.501930 0.553251 0.025690 0.093926
C12   C     C_R   0.741978 0.501560 0.504840 0.807688
C13   C     C_R   0.528691 0.561497 0.131772 0.088165
C14   C     C_R   0.550276 0.360413 0.136271 -0.035923
C15   C     C_R   0.538597 0.352313 0.028894 0.056153
C16   C     C_R   0.385601 0.952976 0.396203 0.014894
C17   C     C_R   0.395794 0.838599 0.408086 0.202779
C18   C     C_R   0.545006 0.860512 0.545307 0.184623
C19   C     C_R   0.535959 0.976517 0.536256 0.006295
C20   C     C_R   0.458196 0.024450 0.460009 -0.018354
C21   C     C_R   0.455382 0.141518 0.451644 0.229225
C22   C     C_R   0.596789 0.159293 0.595022 0.245954
C23   C     C_R   0.512692 0.478273 0.300360 0.871163
C24   C     C_R   0.603940 0.045365 0.603350 -0.267428
C25   C     C_R   0.258865 0.500145 0.505658 0.779288
C26   C     C_3   0.937194 0.402474 0.574804 0.125842
C27   C     C_3   0.083761 0.410141 0.588334 -0.165584
C28   C     C_3   0.920964 0.485149 0.387249 0.014670
C29   C     C_3   0.924007 0.619726 0.562604 -0.031318
C30   C     C_3   0.879479 0.503776 0.506623 -0.107188
H1    H     H_    0.663885 0.011882 0.664007 0.172595
N1    N     N_R   0.523380 0.207800 0.519350 -0.106572
N2    N     N_R   0.476620 0.792180 0.480650 -0.150740
O1    O     O_R   0.506240 0.421700 0.658830 -0.639256
O2    O     O_R   0.491240 0.609310 0.646410 -0.622119
O3    O     O_R   0.692710 0.406190 0.506230 -0.595950
O4    O     O_R   0.677700 0.593810 0.493810 -0.643786
O5    O     O_R   0.508760 0.390690 0.353590 -0.607031
O6    O     O_R   0.493760 0.578300 0.341170 -0.661211
O7    O     O_R   0.322300 0.406190 0.506190 -0.617620
O8    O     O_R   0.307290 0.593810 0.493770 -0.640281
Zn1   Zn    Zn3+2 0.510020 0.374730 0.508290 0.971058
Zn2   Zn    Zn3+2 0.489980 0.625270 0.491710 0.917529
N3    N     N_3   0.902273 0.295620 0.524239 -0.409018
H2    H     H_    0.950830 0.271054 0.459390 0.208677
H3    H     H_    0.916722 0.231134 0.573859 0.158591
N4    N     N_3   0.088639 0.700151 0.461685 -0.459211
H4    H     H_    0.032560 0.689683 0.396308 0.205981
H5    H     H_    0.073541 0.783286 0.486259 0.205356
C31   C     C_2   0.862727 0.576849 0.320788 0.361355
H6    H     H_    0.795918 0.637140 0.350589 0.086705
O9    O     O_2   0.869068 0.570849 0.227091 -0.490608
C32   C     C_2   0.140321 0.529788 0.310659 0.519691
H7    H     H_    0.239665 0.517807 0.310584 0.034267
O10   O     O_2   0.092161 0.585162 0.243280 -0.501061
N5    N     N_3   0.563554 0.665856 0.177819 -0.406521
H8    H     H_    0.639080 0.654798 0.228826 0.223107
H9    H     H_    0.489526 0.706862 0.214621 0.243490
C33   C     C_2   0.584340 0.255857 0.187293 0.454184
H10   H     H_    0.546910 0.179793 0.156089 0.063815
O11   O     O_2   0.659955 0.250832 0.258936 -0.568014
N6    N     N_3   0.441720 0.753563 0.023088 -0.440744
H11   H     H_    0.503134 0.809861 0.002367 0.195746
H12   H     H_    0.352076 0.781921 0.002322 0.206855
N7    N     N_3   0.574202 0.248030 0.976976 -0.469314
H13   H     H_    0.632564 0.259624 0.917623 0.218412
H14   H     H_    0.496416 0.207921 0.949910 0.214231
N8    N     N_3   0.429409 0.734899 0.805043 -0.430257
H15   H     H_    0.490603 0.794943 0.827733 0.175388
H16   H     H_    0.340853 0.765727 0.822845 0.214995
N9    N     N_3   0.424748 0.339802 0.825584 -0.429329
H17   H     H_    0.343912 0.359322 0.783367 0.264307
H18   H     H_    0.487516 0.293829 0.780016 0.243296
N10   N     N_3   0.383611 0.189088 0.369572 -0.480905
H19   H     H_    0.435042 0.178239 0.304235 0.176584
H20   H     H_    0.366958 0.272247 0.384158 0.252122
N11   N     N_3   0.884647 0.408109 0.678240 -0.392774
H21   H     H_    0.899807 0.333518 0.714175 0.226438
H22   H     H_    0.790988 0.429702 0.678442 0.156410
N12   N     N_3   0.665390 0.222637 0.670419 -0.478733
H23   H     H_    0.754500 0.185988 0.676997 0.158387
H24   H     H_    0.675706 0.298044 0.641915 0.248092
N13   N     N_3   0.296104 0.991813 0.320011 -0.439675
H25   H     H_    0.339415 0.022921 0.259096 0.213414
H26   H     H_    0.232284 0.049029 0.353894 0.223357
N14   N     N_3   0.319671 0.773375 0.339046 -0.430083
H27   H     H_    0.228138 0.800855 0.348963 0.210578
H28   H     H_    0.325050 0.692276 0.356514 0.256611
N15   N     N_3   0.628329 0.816425 0.622836 -0.463783
H29   H     H_    0.632585 0.731674 0.617361 0.262383
H30   H     H_    0.593470 0.840812 0.694412 0.172093
C34   C     C_2   0.128514 0.449577 0.697863 0.627566
H31   H     H_    0.212227 0.491437 0.707803 -0.030608
O12   O     O_2   0.090095 0.415856 0.776079 -0.518009
C35   C     C_2   0.149818 0.292172 0.580327 0.398091
H32   H     H_    0.117190 0.224941 0.531283 0.050675
O13   O     O_2   0.243671 0.267535 0.631165 -0.565702
N16   N     N_3   0.865469 0.385896 0.338661 -0.383759
H33   H     H_    0.770135 0.397968 0.335381 0.231548
H34   H     H_    0.885805 0.374434 0.260929 0.293880
C36   C     C_2   0.112408 0.350343 0.351958 0.298062
H35   H     H_    0.170454 0.298252 0.398026 0.082481
O14   O     O_2   0.092005 0.315094 0.263216 -0.534291
N17   N     N_3   0.854479 0.720809 0.527353 -0.455247
H36   H     H_    0.869232 0.746469 0.455011 0.170408
H37   H     H_    0.876298 0.788932 0.576248 0.226469
C37   C     C_2   0.887671 0.623987 0.676379 0.497195
H38   H     H_    0.790763 0.626525 0.691735 0.046731
O15   O     O_2   0.959580 0.624864 0.750902 -0.513799
C38   C     C_2   0.137547 0.678694 0.636741 0.519916
H39   H     H_    0.229122 0.649904 0.661497 0.066342
O16   O     O_2   0.098383 0.766714 0.676769 -0.562094

loop_
_geom_bond_atom_site_label_1
_geom_bond_atom_site_label_2
_ccdc_geom_bond_type
C36   H35   S    
O8    Zn2   S    
C32   O10   D    
C27   C35   S    
C19   C20   A    
O1    Zn1   S    
C6    C9    A    
N17   H37   S    
C26   N3    S    
C7    C8    A    
N4    H5    S    
C32   H7    S    
C7    C11   A    
C14   C33   S    
C26   C27   S    
N6    H11   S    
C22   N1    A    
N13   H25   S    
C3    C28   S    
O5    Zn1   S    
C10   C15   A    
C25   O7    A    
N14   H28   S    
C15   N7    S    
N5    H8    S    
C18   C19   A    
C12   O4    A    
C38   H39   S    
N6    H12   S    
C28   C31   S    
C35   H32   S    
N8    H15   S    
N7    H14   S    
C31   O9    D    
C37   H38   S    
C2    C27   S    
C12   O3    A    
O2    Zn2   S    
C9    C10   A    
C5    C13   A    
C4    C29   S    
C13   N5    S    
C3    C36   S    
O7    Zn1   S    
C33   H10   S    
C36   O14   D    
C3    C32   S    
C37   O15   D    
C17   N2    A    
N17   H36   S    
N3    H3    S    
C1    O1    A    
N11   H22   S    
C21   N1    A    
C33   O11   D    
C26   N11   S    
N10   H19   S    
C17   N14   S    
N2    Zn2   S    
N12   H24   S    
C25   O8    A    
N9    H18   S    
N14   H27   S    
C16   C17   A    
O6    Zn2   S    
N11   H21   S    
C21   N10   S    
C16   N13   S    
C1    C6    S    
C29   N17   S    
O4    Zn2   S    
C2    C4    S    
C7    N6    S    
C29   C30   S    
N4    H4    S    
C5    C23   S    
C16   C20   A    
C34   O12   D    
C31   H6    S    
C27   C34   S    
C5    C14   A    
N10   H20   S    
N13   H26   S    
C26   C30   S    
N16   H34   S    
C22   C24   A    
N15   H30   S    
N3    H2    S    
C1    O2    A    
C28   N16   S    
C4    C38   S    
C12   C30   S    
C18   N15   S    
C9    N9    S    
N12   H23   S    
O3    Zn1   S    
C6    C8    A    
C35   O13   D    
C8    N8    S    
C23   O5    A    
C28   C30   S    
C2    C3    S    
C24   H1    S    
C22   N12   S    
N9    H17   S    
C11   C13   A    
C23   O6    A    
C34   H31   S    
N5    H9    S    
C19   C24   A    
C2    C25   S    
N7    H13   S    
C18   N2    A    
C38   O16   D    
C10   C11   A    
C20   C21   A    
N8    H16   S    
N16   H33   S    
N1    Zn1   S    
C14   C15   A    
C29   C37   S    
N15   H29   S    
C4    N4    S    
