data_str_m3_o5_o17_f0_pcu.sym.14
_audit_creation_date              2013-03-05T16:46:58-0500
_audit_creation_method            fapswitch 2.2
_symmetry_space_group_name_H-M    P1
_symmetry_Int_Tables_number       1
_space_group_crystal_system       triclinic
_cell_length_a                    15.049891
_cell_length_b                    8.918836
_cell_length_c                    8.112863
_cell_angle_alpha                 90.035848
_cell_angle_beta                  89.844251
_cell_angle_gamma                 90.27423
_cell_volume                      1088.95269593

loop_
_atom_site_label
_atom_site_type_symbol
_atom_site_description
_atom_site_fract_x
_atom_site_fract_y
_atom_site_fract_z
_atom_type_partial_charge
O1    O     O_R   0.500000 0.285350 0.636850 -0.618082
O2    O     O_R   0.500000 0.714650 0.363150 -0.618089
O3    O     O_R   0.500000 0.714650 0.636850 -0.617109
O4    O     O_R   0.500000 0.285350 0.363150 -0.617125
H1    H     H_    0.919991 0.164117 0.697874 0.183283
H2    H     H_    0.080005 0.835966 0.302268 0.183326
H3    H     H_    0.922737 0.835034 0.300155 0.179138
H4    H     H_    0.077261 0.165014 0.699919 0.179151
C1    C     C_R   0.500294 0.218058 0.499941 1.007382
C2    C     C_R   0.499709 0.781942 0.500059 1.007476
O5    O     O_R   0.367850 0.500000 0.636890 -0.614003
O6    O     O_R   0.632150 0.500000 0.363110 -0.614012
O7    O     O_R   0.632150 0.500000 0.636890 -0.606525
O8    O     O_R   0.367850 0.500000 0.363110 -0.606532
C3    C     C_R   0.326775 0.499463 0.500282 0.946575
C4    C     C_R   0.673227 0.500539 0.499719 0.946531
Zn1   Zn    Zn3+2 0.500000 0.500000 0.682780 1.062276
Zn2   Zn    Zn3+2 0.500000 0.500000 0.317220 1.062256
N1    N     N_1   0.500000 0.500000 0.073640 -0.011364
N2    N     N_1   0.500000 0.500000 0.926360 -0.011360
C5    C     C_R   0.814261 0.617246 0.419694 -0.076468
C6    C     C_R   0.185739 0.382759 0.580295 -0.076469
C7    C     C_R   0.813132 0.381402 0.577101 -0.082127
C8    C     C_R   0.186868 0.618645 0.422962 -0.082141
C9    C     C_R   0.768597 0.499752 0.498868 -0.202660
C10   C     C_R   0.231405 0.500263 0.501141 -0.202645
C11   C     C_R   0.906134 0.380286 0.575480 0.050062
C12   C     C_R   0.093867 0.619760 0.424584 0.050057
C13   C     C_R   0.907224 0.618924 0.422777 0.047211
C14   C     C_R   0.092776 0.381101 0.577249 0.047204
C15   C     C_R   0.953238 0.499824 0.499608 0.068649
C16   C     C_R   0.046763 0.500209 0.500432 0.068645
C17   C     C_R   0.953175 0.260517 0.644739 -0.162238
C18   C     C_R   0.046825 0.739543 0.355356 -0.162234
C19   C     C_R   0.955210 0.739041 0.354257 -0.167707
C20   C     C_R   0.044789 0.261002 0.645805 -0.167729
C21   C     C_1   0.500172 0.065223 0.499891 -0.119807
C22   C     C_1   0.499833 0.934777 0.500109 -0.119766
C23   C     C_2   0.764115 0.739773 0.338150 0.908022
O9    O     O_2   0.770757 0.758368 0.189277 -0.597901
O10   O     O_R   0.709536 0.832962 0.432202 -0.794648
H5    H     H_    0.680114 0.913282 0.363190 0.356517
C24   C     C_2   0.235886 0.260203 0.661782 0.907960
O11   O     O_2   0.229279 0.241597 0.810657 -0.597909
O12   O     O_R   0.290433 0.167004 0.567672 -0.794648
H6    H     H_    0.319861 0.086670 0.636652 0.356571
C25   C     C_2   0.761854 0.258050 0.657174 0.916801
O13   O     O_2   0.711056 0.180974 0.575386 -0.640228
O14   O     O_R   0.771520 0.231603 0.825991 -0.775282
H7    H     H_    0.733122 0.145250 0.866091 0.360246
C26   C     C_2   0.238149 0.742040 0.342975 0.916795
O15   O     O_2   0.288979 0.819023 0.424805 -0.640290
O16   O     O_R   0.228448 0.768653 0.174196 -0.775318
H8    H     H_    0.266825 0.855064 0.134177 0.360283

loop_
_geom_bond_atom_site_label_1
_geom_bond_atom_site_label_2
_geom_bond_distance
_ccdc_geom_bond_type
C24   O11   1.222969 D    
C21   C22   1.163421 T    
O7    Zn1   2.022393 S    
O2    Zn2   1.950125 S    
O10   H5    1.013709 S    
O8    Zn2   2.022394 S    
O1    Zn1   1.950126 S    
N1    N2    1.194862 T    
C5    C23   1.487593 S    
C14   C20   1.403358 A    
C2    C22   1.363101 S    
O4    Zn2   1.950584 S    
Zn1   N2    1.976131 S    
C8    C26   1.489284 S    
C1    C21   1.363101 S    
C12   C18   1.402907 A    
C13   C15   1.416561 A    
O3    C2    1.262017 A    
O12   H6    1.013695 S    
C11   C17   1.402908 A    
C14   C16   1.416554 A    
C24   O12   1.396463 S    
H3    C19   1.081724 S    
H2    C18   1.081483 S    
O5    C3    1.270486 A    
O6    C4    1.270506 A    
C25   O14   1.397999 S    
C8    C10   1.405790 A    
O3    Zn1   1.950583 S    
C7    C11   1.399773 A    
C7    C9    1.405768 A    
H4    C20   1.081718 S    
C7    C25   1.489276 S    
C23   O9    1.222976 D    
C11   C15   1.417504 A    
C26   O15   1.222504 D    
O2    C2    1.262176 A    
C25   O13   1.222482 D    
C8    C12   1.399761 A    
C12   C16   1.417502 A    
C17   C20   1.378825 A    
O1    C1    1.262175 A    
C23   O10   1.396446 S    
C18   C19   1.378832 A    
C6    C10   1.405187 A    
O7    C4    1.271562 A    
O6    Zn2   2.024382 S    
C4    C9    1.435360 S    
O14   H7    1.013899 S    
C5    C9    1.405183 A    
O8    C3    1.271555 A    
Zn2   N1    1.976131 S    
C3    C10   1.435367 S    
C6    C14   1.399383 A    
O4    C1    1.262017 A    
O16   H8    1.013897 S    
C13   C19   1.403362 A    
C5    C13   1.399383 A    
C6    C24   1.487583 S    
O5    Zn1   2.024384 S    
C15   C16   1.407558 A    
C26   O16   1.398000 S    
H1    C17   1.081491 S    
