data_str_m9_o1_o2_f0_sra.sym.53
_audit_creation_date              2012-12-11T15:54:42-0500
_audit_creation_method            fapswitch 2.2
_symmetry_space_group_name_H-M    P1
_symmetry_Int_Tables_number       1
_space_group_crystal_system       triclinic
_cell_length_a                    6.943877
_cell_length_b                    14.539702
_cell_length_c                    16.084753
_cell_angle_alpha                 89.859544
_cell_angle_beta                  89.989857
_cell_angle_gamma                 90.071121
_cell_volume                      1623.94110404

loop_
_atom_site_label
_atom_site_type_symbol
_atom_type_description
_atom_site_fract_x
_atom_site_fract_y
_atom_site_fract_z
_atom_type_partial_charge
O1    O     O_R   0.638180 0.333920 0.163320 -0.540743
O2    O     O_R   0.361820 0.666080 0.836680 -0.544602
O3    O     O_R   0.308470 0.344960 0.336080 -0.548309
O4    O     O_R   0.691530 0.655040 0.663920 -0.548357
O5    O     O_R   0.138140 0.166110 0.336680 -0.540242
O6    O     O_R   0.861860 0.833890 0.663320 -0.535109
C1    C     C_R   0.477539 0.367112 0.365073 0.680970
C2    C     C_R   0.522460 0.632884 0.634930 0.680484
O7    O     O_R   0.308460 0.344950 0.163930 -0.543314
O8    O     O_R   0.691540 0.655050 0.836070 -0.546128
O9    O     O_R   0.138140 0.166100 0.163310 -0.508404
O10   O     O_R   0.861860 0.833900 0.836690 -0.507764
C3    C     C_R   0.477573 0.367289 0.135120 0.700110
C4    C     C_R   0.522459 0.632908 0.865019 0.673746
O11   O     O_R   0.638180 0.333930 0.336700 -0.542864
O12   O     O_R   0.361820 0.666070 0.663300 -0.543380
O13   O     O_3   0.471670 0.191340 0.250000 -0.356273
O14   O     O_3   0.528330 0.808660 0.750000 -0.346932
V1    V     V_3+5 0.196830 0.260900 0.250000 1.432505
V2    V     V_3+5 0.803170 0.739100 0.750000 1.433821
O15   O     O_R   0.808420 0.155070 0.163920 -0.544038
O16   O     O_R   0.191580 0.844930 0.836080 -0.542631
C5    C     C_R   0.977992 0.130908 0.136686 0.734877
C6    C     C_R   0.022321 0.865628 0.866198 0.733893
O17   O     O_R   0.808420 0.155080 0.336070 -0.540640
O18   O     O_R   0.191580 0.844920 0.663930 -0.538762
C7    C     C_R   0.977270 0.133425 0.364836 0.683227
C8    C     C_R   0.022777 0.866558 0.635091 0.691102
V3    V     V_3+5 0.696830 0.239130 0.250000 1.432553
V4    V     V_3+5 0.303170 0.760870 0.750000 1.443700
O19   O     O_3   0.971850 0.308690 0.250010 -0.379623
O20   O     O_3   0.028150 0.691310 0.749990 -0.383284
C9    C     C_R   0.097641 0.186136 0.530258 -0.183818
C10   C     C_R   0.902838 0.813850 0.469377 -0.208291
C11   C     C_R   0.156840 0.214038 0.609002 -0.157938
C12   C     C_R   0.845545 0.785906 0.390356 -0.117121
C13   C     C_R   0.168194 0.150499 0.674187 0.258070
C14   C     C_R   0.835737 0.849021 0.325141 0.257146
C15   C     C_R   0.120799 0.058499 0.659600 -0.132010
C16   C     C_R   0.883103 0.941316 0.339710 -0.193938
C17   C     C_R   0.062169 0.028074 0.579980 0.014856
C18   C     C_R   0.939239 0.971822 0.419652 0.036655
C19   C     C_R   0.050052 0.093247 0.513966 0.069361
C20   C     C_R   0.950430 0.906707 0.485763 0.072434
C21   C     C_R   0.012270 0.934722 0.565986 -0.155615
C22   C     C_R   0.988050 0.065232 0.433817 -0.154169
H1    H     H_    0.088590 0.238584 0.482601 0.116408
H2    H     H_    0.910971 0.761441 0.517099 0.116501
H3    H     H_    0.192618 0.285674 0.619133 0.116935
H4    H     H_    0.810317 0.714307 0.379633 0.129782
H5    H     H_    0.129381 0.011575 0.711779 0.119740
H6    H     H_    0.876760 0.988521 0.287705 0.092130
C23   C     C_R   0.177577 0.965686 0.974222 -0.297880
C24   C     C_R   0.822611 0.023262 0.035079 -0.314469
H7    H     H_    0.316139 0.945669 0.950611 0.219779
H8    H     H_    0.683949 0.046287 0.056298 0.219386
C25   C     C_R   0.169491 0.023522 0.043805 0.492680
C26   C     C_R   0.830669 0.955265 0.973509 0.496032
C27   C     C_R   0.990576 0.058974 0.070865 -0.228569
C28   C     C_R   0.009619 0.930683 0.937758 -0.226045
C29   C     C_R   0.320564 0.471419 0.470135 -0.161413
C30   C     C_R   0.679433 0.528574 0.529870 -0.162788
H9    H     H_    0.179804 0.450251 0.448388 0.113299
H10   H     H_    0.820194 0.549741 0.551617 0.112831
C31   C     C_R   0.331686 0.535114 0.535199 -0.152422
C32   C     C_R   0.668311 0.464878 0.464806 -0.149664
H11   H     H_    0.198915 0.561231 0.561330 0.115849
H12   H     H_    0.801083 0.438760 0.438676 0.116237
C33   C     C_R   0.511285 0.564550 0.566079 -0.042895
C34   C     C_R   0.488712 0.435444 0.433926 -0.041560
C35   C     C_R   0.320790 0.474538 0.032411 -0.151288
C36   C     C_R   0.679361 0.526466 0.968324 -0.158319
H13   H     H_    0.180175 0.455556 0.056012 0.116246
H14   H     H_    0.819970 0.545516 0.944762 0.114489
C37   C     C_R   0.331891 0.538189 0.967164 -0.154753
C38   C     C_R   0.668264 0.462803 0.033563 -0.144144
H15   H     H_    0.199288 0.566460 0.942662 0.116128
H16   H     H_    0.800877 0.434575 0.058093 0.118175
C39   C     C_R   0.511308 0.564866 0.934095 -0.052223
C40   C     C_R   0.488809 0.435879 0.066452 -0.047758
N1    N     N_3   0.780401 0.817969 0.243946 -0.685599
H17   H     H_    0.790563 0.871768 0.200897 0.209241
H18   H     H_    0.635130 0.799235 0.246797 0.219442
N2    N     N_3   0.228448 0.177979 0.755799 -0.657421
H19   H     H_    0.111178 0.168987 0.795807 0.227052
H20   H     H_    0.261967 0.248116 0.756479 0.224353
O21   O     O_3   0.338547 0.044540 0.084592 -0.547589
C41   C     C_3   0.357982 0.983654 0.152733 -0.205469
H21   H     H_    0.351578 0.910432 0.132918 0.108645
H22   H     H_    0.245932 0.996433 0.200747 0.128151
H23   H     H_    0.500251 0.995302 0.182281 0.149017
O22   O     O_3   0.661370 0.914196 0.948393 -0.544325
C42   C     C_3   0.632837 0.834505 0.997351 -0.205664
H24   H     H_    0.623740 0.851439 0.064545 0.117431
H25   H     H_    0.748834 0.783008 0.987176 0.121511
H26   H     H_    0.494692 0.801962 0.979075 0.139577

loop_
_geom_bond_atom_site_label_1
_geom_bond_atom_site_label_2
_ccdc_geom_bond_type
C29   C34   A    
C32   H12   S    
O21   C41   S    
C42   H24   S    
O13   V3    S    
C15   H5    S    
O4    C2    A    
V1    O19   S    
C1    C34   S    
C26   O22   S    
N1    H17   S    
C15   C17   A    
C5    C27   S    
O9    V1    S    
C2    C33   S    
C14   C16   A    
C38   H16   S    
C36   C39   A    
O3    C1    A    
V2    O20   S    
C25   C27   A    
O12   V4    S    
C18   C22   A    
C29   H9    S    
O7    C3    A    
C30   H10   S    
C9    C11   A    
O5    C7    A    
O7    V1    S    
O6    C8    A    
O8    V2    S    
C31   H11   S    
C11   H3    S    
C13   N2    S    
O3    V1    S    
O14   V4    S    
V4    O20   S    
C10   C12   A    
C36   C38   A    
C16   C18   A    
C3    C40   S    
C42   H25   S    
C17   C19   A    
C18   C20   A    
C35   C40   A    
N1    H18   S    
C23   C28   A    
O11   V3    S    
C24   C27   A    
C23   H7    S    
O17   V3    S    
C13   C15   A    
C24   H8    S    
C8    C21   S    
C30   C32   A    
C9    C19   A    
C10   C20   A    
N2    H19   S    
C36   H14   S    
O8    C4    A    
C35   H13   S    
C23   C25   A    
C1    O11   A    
C16   H6    S    
O15   V3    S    
C25   O21   S    
C30   C33   A    
C41   H23   S    
C6    C28   S    
O10   V2    S    
O1    V3    S    
C4    C39   S    
C37   H15   S    
C7    C22   S    
C41   H22   S    
O18   V4    S    
C42   H26   S    
O15   C5    A    
C14   N1    S    
C9    H1    S    
O16   C6    A    
O1    C3    A    
C12   H4    S    
C20   C21   A    
C24   C26   A    
O16   V4    S    
C11   C13   A    
C38   C40   A    
N2    H20   S    
O5    V1    S    
O17   C7    A    
O6    V2    S    
O10   C6    A    
O18   C8    A    
O2    V4    S    
C12   C14   A    
V3    O19   S    
C35   C37   A    
C32   C34   A    
C37   C39   A    
C31   C33   A    
O9    C5    A    
O22   C42   S    
O13   V1    S    
O14   V2    S    
O2    C4    A    
C19   C22   A    
O4    V2    S    
C29   C31   A    
C10   H2    S    
C41   H21   S    
C2    O12   A    
C17   C21   A    
C26   C28   A    
