data_str_m2_o10_o28_f0_pcu.sym.246
_audit_creation_date              2012-12-10T16:50:16-0500
_audit_creation_method            fapswitch 2.2
_symmetry_space_group_name_H-M    P1
_symmetry_Int_Tables_number       1
_space_group_crystal_system       triclinic
_cell_length_a                    23.553625
_cell_length_b                    8.784939
_cell_length_c                    7.622497
_cell_angle_alpha                 103.947584
_cell_angle_beta                  96.469625
_cell_angle_gamma                 96.858698
_cell_volume                      1503.30223817

loop_
_atom_site_label
_atom_site_type_symbol
_atom_type_description
_atom_site_fract_x
_atom_site_fract_y
_atom_site_fract_z
_atom_type_partial_charge
C1    C     C_R   0.497952 0.200222 0.452888 0.850901
C2    C     C_R   0.502107 0.799802 0.547136 0.861449
C3    C     C_R   0.249065 0.650748 0.439471 0.165414
C4    C     C_R   0.751514 0.438053 0.325527 0.139269
C5    C     C_R   0.308752 0.642826 0.453210 0.125141
C6    C     C_R   0.692195 0.427350 0.335188 0.131544
C7    C     C_R   0.329383 0.507899 0.490304 -0.115451
C8    C     C_R   0.672334 0.495013 0.500957 -0.155040
C9    C     C_R   0.290424 0.378931 0.508292 0.048898
C10   C     C_R   0.713522 0.560496 0.661360 -0.001094
C11   C     C_R   0.232314 0.397361 0.519650 0.000577
C12   C     C_R   0.772719 0.551993 0.655802 0.031060
C13   C     C_R   0.211125 0.531397 0.480886 0.171773
C14   C     C_R   0.792051 0.495848 0.486198 0.176324
C15   C     C_2   0.492024 0.030735 0.428405 -0.039081
C16   C     C_2   0.507915 0.969304 0.571735 -0.046207
C17   C     C_R   0.391479 0.500343 0.497736 0.848928
C18   C     C_R   0.609139 0.499315 0.501355 0.849445
C19   C     C_R   0.887877 0.649548 0.531538 0.559739
C20   C     C_R   0.112659 0.421992 0.340498 0.557327
C21   C     C_R   0.875827 0.368823 0.415896 0.585949
C22   C     C_R   0.129741 0.652839 0.590274 0.568730
C23   C     C_R   0.934019 0.376781 0.386593 -0.091928
C24   C     C_R   0.069886 0.661279 0.576879 -0.097989
C25   C     C_R   0.971295 0.521713 0.465993 -0.056722
C26   C     C_R   0.031393 0.529090 0.463881 -0.056539
C27   C     C_R   0.948599 0.658529 0.549650 -0.080268
C28   C     C_R   0.052948 0.403022 0.351062 -0.088543
C29   C     C_R   0.956278 0.246440 0.282639 0.171247
C30   C     C_R   0.047017 0.794084 0.673474 0.152720
C31   C     C_R   0.014480 0.262240 0.257789 0.168531
C32   C     C_R   0.987224 0.796381 0.650999 0.169967
Cu1   Cu    Cu3+1 0.506340 0.517380 0.684380 1.009662
Cu2   Cu    Cu3+1 0.493660 0.482620 0.315620 1.037559
N1    N     N_R   0.853216 0.505013 0.475768 -0.430619
N2    N     N_R   0.149831 0.538199 0.467956 -0.443028
N3    N     N_2   0.484110 0.456420 0.038520 -0.214035
N4    N     N_2   0.515890 0.543580 0.961480 -0.210756
O1    O     O_R   0.504120 0.286130 0.619770 -0.525822
O2    O     O_R   0.495880 0.713870 0.380230 -0.521278
O3    O     O_R   0.493410 0.256770 0.308360 -0.584793
O4    O     O_R   0.506590 0.743230 0.691640 -0.579479
O5    O     O_R   0.423230 0.514630 0.655730 -0.551573
O6    O     O_R   0.576770 0.485370 0.344270 -0.516867
O7    O     O_R   0.412530 0.485280 0.344320 -0.543743
O8    O     O_R   0.587470 0.514720 0.655680 -0.599723
O9    O     O_2   0.863230 0.782168 0.571070 -0.552616
O10   O     O_2   0.134180 0.324590 0.207550 -0.515003
O11   O     O_2   0.842196 0.227512 0.389140 -0.546926
O12   O     O_2   0.167615 0.754826 0.725336 -0.550980
N5    N     N_3   0.920426 0.098269 0.190782 -0.541999
H1    H     H_    0.885265 0.118979 0.107723 0.263007
H2    H     H_    0.906353 0.041958 0.287644 0.269719
N6    N     N_3   0.083171 0.931699 0.792127 -0.524842
H3    H     H_    0.113400 0.977334 0.720762 0.258887
H4    H     H_    0.103881 0.900719 0.904225 0.280438
N7    N     N_3   0.033425 0.128357 0.144032 -0.523950
H5    H     H_    0.047745 0.161110 0.031718 0.299918
H6    H     H_    0.066480 0.091243 0.219361 0.258438
N8    N     N_3   0.967355 0.938053 0.744191 -0.524201
H7    H     H_    0.946466 0.987760 0.648224 0.265957
H8    H     H_    0.939417 0.910543 0.833145 0.280582
N9    N     N_3   0.227231 0.777161 0.377297 -0.567873
H9    H     H_    0.193601 0.728725 0.268938 0.253861
H10   H     H_    0.211238 0.849638 0.483961 0.270188
N10   N     N_3   0.769656 0.395163 0.148888 -0.582369
H11   H     H_    0.801832 0.484470 0.139899 0.251563
H12   H     H_    0.786415 0.288835 0.132458 0.266884
N11   N     N_3   0.349295 0.769068 0.426810 -0.559138
H13   H     H_    0.373964 0.825615 0.553739 0.192084
H14   H     H_    0.328739 0.855460 0.383946 0.258024
N12   N     N_3   0.651871 0.343223 0.175872 -0.545891
H15   H     H_    0.657653 0.398276 0.070900 0.239830
H16   H     H_    0.660895 0.227287 0.134601 0.236204
N13   N     N_3   0.308451 0.227930 0.509796 -0.555708
H17   H     H_    0.349125 0.222595 0.469138 0.214599
H18   H     H_    0.281902 0.141396 0.404721 0.267163
N14   N     N_3   0.696622 0.638635 0.830956 -0.504742
H19   H     H_    0.674094 0.729790 0.810164 0.271979
H20   H     H_    0.670890 0.556626 0.878163 0.241505
C33   C     C_2   0.192408 0.272891 0.563528 0.908145
O13   O     O_2   0.169082 0.305017 0.700429 -0.564915
O14   O     O_R   0.178898 0.122153 0.442409 -0.759640
H21   H     H_    0.147713 0.051262 0.478758 0.309584
C34   C     C_2   0.814724 0.602855 0.828105 0.904020
O15   O     O_2   0.853795 0.526408 0.851154 -0.617891
O16   O     O_R   0.810034 0.738352 0.963312 -0.710751
H22   H     H_    0.841294 0.760301 0.073025 0.333113
N15   N     N_3   0.465265 0.931848 0.252052 -0.547975
H23   H     H_    0.424627 0.963644 0.221410 0.238137
H24   H     H_    0.490545 0.954432 0.154213 0.231639
N16   N     N_3   0.534500 0.068260 0.748286 -0.560573
H25   H     H_    0.575173 0.036846 0.779396 0.235565
H26   H     H_    0.509120 0.045605 0.845871 0.231657
C35   C     C_2   0.438533 0.327568 0.949902 1.068924
O17   O     O_2   0.413414 0.257493 0.045705 -0.603695
O18   O     O_R   0.420563 0.276611 0.763989 -0.746194
H27   H     H_    0.393155 0.172332 0.728330 0.306915
C36   C     C_2   0.559816 0.676674 0.053508 1.040828
O19   O     O_2   0.581167 0.758065 0.961920 -0.633471
O20   O     O_R   0.581679 0.716350 0.237597 -0.745211
H28   H     H_    0.612845 0.813111 0.276433 0.305621

loop_
_geom_bond_atom_site_label_1
_geom_bond_atom_site_label_2
_ccdc_geom_bond_type
N10   H12   S    
O16   H22   S    
N9    H10   S    
O20   H28   S    
Cu2   N3    S    
C35   O17   D    
C21   O11   S    
O18   H27   S    
C10   N14   S    
C34   O15   D    
C11   C33   S    
C6    N12   S    
C30   N6    S    
Cu1   O1    S    
C12   C34   S    
Cu2   O2    S    
Cu1   O4    S    
C23   C29   A    
C24   C26   A    
N14   H20   S    
N7    H6    S    
C15   C16   D    
N3    C35   S    
N8    H8    S    
N11   H14   S    
C5    N11   S    
C36   O19   D    
C7    C17   S    
C1    C15   S    
N15   H24   S    
C2    C16   S    
C3    C13   A    
C22   O12   S    
N10   H11   S    
Cu1   O8    S    
Cu2   O3    S    
C18   O8    A    
C33   O14   S    
C33   O13   D    
C34   O16   S    
N6    H4    S    
N5    H1    S    
Cu1   O5    S    
Cu2   O6    S    
C13   N2    S    
N12   H16   S    
C14   N1    S    
C5    C7    A    
N14   H19   S    
N4    C36   S    
C6    C8    A    
C20   C28   A    
C25   C26   A    
C8    C18   S    
N8    H7    S    
N5    H2    S    
N13   H17   S    
C17   O5    A    
N3    N4    D    
C18   O6    A    
C15   N15   S    
N13   H18   S    
O14   H21   S    
N16   H26   S    
Cu1   Cu2   S    
Cu2   O7    S    
C9    C11   A    
C20   O10   S    
C10   C12   A    
C4    C6    A    
C36   O20   S    
C12   C14   A    
C16   N16   S    
C21   C23   A    
C22   C24   A    
C32   N8    S    
C19   C27   A    
C29   N5    S    
C1    O3    A    
C7    C9    A    
N6    H3    S    
C27   C32   A    
C28   C31   A    
C17   O7    A    
N12   H15   S    
C3    C5    A    
C35   O18   S    
C21   N1    A    
C3    N9    S    
C25   C27   A    
C22   N2    A    
C26   C28   A    
Cu1   N4    S    
C31   N7    S    
C29   C31   A    
C19   N1    A    
C30   C32   A    
C11   C13   A    
N7    H5    S    
C2    O4    A    
N16   H25   S    
C19   O9    S    
C23   C25   A    
C4    C14   A    
N11   H13   S    
C24   C30   A    
C1    O1    A    
N9    H9    S    
C20   N2    A    
C2    O2    A    
C4    N10   S    
C8    C10   A    
C9    N13   S    
N15   H23   S    
