data_str_m2_o10_o29_f0_pcu.sym.227
_audit_creation_date              2012-12-10T16:51:18-0500
_audit_creation_method            fapswitch 2.2
_symmetry_space_group_name_H-M    P1
_symmetry_Int_Tables_number       1
_space_group_crystal_system       triclinic
_cell_length_a                    27.778426
_cell_length_b                    8.672425
_cell_length_c                    7.433199
_cell_angle_alpha                 102.980424
_cell_angle_beta                  93.963273
_cell_angle_gamma                 92.401923
_cell_volume                      1737.73268775

loop_
_atom_site_label
_atom_site_type_symbol
_atom_type_description
_atom_site_fract_x
_atom_site_fract_y
_atom_site_fract_z
_atom_type_partial_charge
C1    C     C_R   0.498543 0.199655 0.453200 0.892432
C2    C     C_R   0.501457 0.800345 0.546800 0.892445
C3    C     C_R   0.102249 0.498279 0.515752 -0.043154
C4    C     C_R   0.897733 0.501232 0.484128 -0.043158
C5    C     C_R   0.125194 0.353967 0.479038 -0.020704
C6    C     C_R   0.874789 0.645548 0.520714 -0.020755
C7    C     C_R   0.097308 0.211121 0.437220 -0.151818
C8    C     C_R   0.902674 0.788392 0.562419 -0.151782
C9    C     C_R   0.130779 0.641872 0.559260 -0.021382
C10   C     C_R   0.869203 0.357639 0.440765 -0.021436
C11   C     C_R   0.354641 0.498748 0.509227 -0.036432
C12   C     C_R   0.645359 0.501096 0.490755 -0.036422
C13   C     C_R   0.971493 0.353454 0.454947 0.043935
C14   C     C_R   0.028489 0.646053 0.544962 0.043928
C15   C     C_R   0.977187 0.646806 0.536020 0.045151
C16   C     C_R   0.022795 0.352702 0.463796 0.045144
C17   C     C_R   0.949037 0.500496 0.491599 0.068581
C18   C     C_R   0.050944 0.499012 0.508267 0.068573
C19   C     C_R   0.941519 0.211647 0.410036 -0.215924
C20   C     C_R   0.058462 0.787860 0.590025 -0.215960
C21   C     C_R   0.891527 0.214112 0.403456 -0.143719
C22   C     C_R   0.108454 0.785397 0.596663 -0.143736
C23   C     C_R   0.407494 0.499636 0.502834 0.798795
C24   C     C_R   0.592507 0.500342 0.497163 0.798852
C25   C     C_R   0.047245 0.210083 0.429897 -0.214169
C26   C     C_R   0.952737 0.789426 0.569775 -0.214131
C27   C     C_2   0.497843 0.031733 0.426801 -0.362808
C28   C     C_2   0.502157 0.968267 0.573199 -0.362803
C29   C     C_R   0.175816 0.355968 0.483884 0.535390
C30   C     C_R   0.824168 0.643551 0.515876 0.535532
C31   C     C_R   0.181295 0.638545 0.562948 0.539173
C32   C     C_R   0.818688 0.360977 0.437115 0.539229
C33   C     C_R   0.283685 0.520840 0.684839 -0.098380
C34   C     C_R   0.716342 0.481312 0.315375 -0.098330
C35   C     C_R   0.333795 0.521643 0.679757 -0.213024
C36   C     C_R   0.666234 0.480618 0.320467 -0.212706
C37   C     C_R   0.324481 0.474498 0.344216 -0.204837
C38   C     C_R   0.675493 0.522754 0.655511 -0.204495
C39   C     C_R   0.274458 0.473149 0.349743 -0.102117
C40   C     C_R   0.725515 0.523914 0.649971 -0.102232
C41   C     C_R   0.253993 0.496488 0.519832 0.363420
C42   C     C_R   0.746001 0.503056 0.480126 0.363926
Cu1   Cu    Cu3+1 0.505380 0.517380 0.684380 0.956526
Cu2   Cu    Cu3+1 0.494620 0.482620 0.315620 0.956534
H1    H     H_    0.339455 0.456387 0.210815 0.158469
H2    H     H_    0.660501 0.538898 0.788718 0.158265
H3    H     H_    0.462191 0.378195 0.948555 0.225814
H4    H     H_    0.537809 0.621804 0.051445 0.225767
H5    H     H_    0.251522 0.454661 0.221952 0.136371
H6    H     H_    0.748434 0.540373 0.777551 0.135848
H7    H     H_    0.643928 0.463799 0.191388 0.158583
H8    H     H_    0.356124 0.540537 0.809039 0.158945
H9    H     H_    0.732156 0.465102 0.183741 0.134480
H10   H     H_    0.267895 0.538967 0.816679 0.135089
H11   H     H_    0.870371 0.102090 0.369016 0.193170
H12   H     H_    0.129608 0.897423 0.631214 0.193195
H13   H     H_    0.955229 0.095353 0.378501 0.138525
H14   H     H_    0.044752 0.904154 0.621676 0.138579
H15   H     H_    0.029010 0.094219 0.396719 0.135554
H16   H     H_    0.970973 0.905287 0.602830 0.135499
H17   H     H_    0.493778 0.960021 0.285768 0.179833
H18   H     H_    0.506222 0.039979 0.714232 0.179845
N1    N     N_R   0.202600 0.496958 0.524327 -0.473857
N2    N     N_R   0.797388 0.502566 0.475596 -0.473963
N3    N     N_2   0.486510 0.456430 0.038510 -0.218476
N4    N     N_2   0.513490 0.543570 0.961490 -0.218498
O1    O     O_R   0.503500 0.286120 0.619780 -0.583096
O2    O     O_R   0.496500 0.713880 0.380220 -0.583095
O3    O     O_R   0.494410 0.256780 0.308360 -0.583355
O4    O     O_R   0.505590 0.743220 0.691640 -0.583345
O5    O     O_R   0.434810 0.514700 0.655690 -0.591946
O6    O     O_R   0.565190 0.485300 0.344310 -0.591918
O7    O     O_R   0.425720 0.485350 0.344280 -0.584408
O8    O     O_R   0.574280 0.514650 0.655720 -0.584419
O9    O     O_2   0.198144 0.218351 0.448064 -0.515509
O10   O     O_2   0.801836 0.781161 0.551616 -0.515315
O11   O     O_2   0.791053 0.224016 0.397319 -0.512336
O12   O     O_2   0.208926 0.775527 0.602847 -0.512540
H19   H     H_    0.114096 0.098548 0.409090 0.186574
H20   H     H_    0.885886 0.900965 0.590448 0.186514

loop_
_geom_bond_atom_site_label_1
_geom_bond_atom_site_label_2
_ccdc_geom_bond_type
C29   N1    A    
C30   N2    A    
C8    C26   A    
C14   C18   A    
C34   C42   A    
C39   C41   A    
C19   H13   S    
C19   C21   A    
C2    O2    A    
C9    C22   A    
C33   H10   S    
C3    C18   A    
C11   C37   A    
C27   H17   S    
C1    O1    A    
C32   O11   S    
C5    C7    A    
C12   C36   A    
C1    C27   S    
Cu1   O8    S    
C40   C42   A    
Cu2   N3    S    
C23   O7    A    
C5    C29   A    
C10   C21   A    
C13   C19   A    
C14   C20   A    
C32   N2    A    
C4    C6    A    
C21   H11   S    
C15   C26   A    
C6    C8    A    
C1    O3    A    
Cu1   Cu2   S    
C3    C9    A    
C23   O5    A    
C30   O10   S    
Cu2   O3    S    
C36   H7    S    
C4    C17   A    
C16   C18   A    
C39   H5    S    
C20   C22   A    
Cu1   O4    S    
Cu2   O2    S    
C41   N1    S    
C20   H14   S    
C42   N2    S    
C27   C28   D    
C24   O6    A    
C31   O12   S    
C7    H19   S    
C16   C25   A    
C15   C17   A    
Cu1   O5    S    
C6    C30   A    
C4    C10   A    
C3    C5    A    
C22   H12   S    
C29   O9    S    
C31   N1    A    
C12   C24   S    
C7    C25   A    
C13   C17   A    
C33   C41   A    
C11   C35   A    
C37   C39   A    
C38   C40   A    
C24   O8    A    
C26   H16   S    
Cu1   N4    S    
C40   H6    S    
C11   C23   S    
C33   C35   A    
Cu2   O6    S    
C34   C36   A    
C12   C38   A    
Cu2   O7    S    
C38   H2    S    
C9    C31   A    
C10   C32   A    
C34   H9    S    
Cu1   O1    S    
N3    N4    D    
C13   C16   A    
C35   H8    S    
C8    H20   S    
C14   C15   A    
C2    C28   S    
C25   H15   S    
H4    N4    S    
C2    O4    A    
C37   H1    S    
H3    N3    S    
C28   H18   S    
