data_str_m2_o14_o21_f0_pcu.sym.202
_audit_creation_date              2012-12-10T17:21:18-0500
_audit_creation_method            fapswitch 2.2
_symmetry_space_group_name_H-M    P1
_symmetry_Int_Tables_number       1
_space_group_crystal_system       triclinic
_cell_length_a                    9.66543
_cell_length_b                    10.794534
_cell_length_c                    13.873848
_cell_angle_alpha                 93.202184
_cell_angle_beta                  85.492034
_cell_angle_gamma                 91.214089
_cell_volume                      1440.57517098

loop_
_atom_site_label
_atom_site_type_symbol
_atom_type_description
_atom_site_fract_x
_atom_site_fract_y
_atom_site_fract_z
_atom_type_partial_charge
C1    C     C_R   0.502194 0.736822 0.493755 0.811820
C2    C     C_1   0.470729 0.509578 0.785596 -0.157609
C3    C     C_R   0.362452 0.860034 0.343419 -0.179976
C4    C     C_R   0.324169 0.918912 0.262856 -0.150036
C5    C     C_R   0.347259 0.045725 0.255994 -0.134668
C6    C     C_R   0.401427 0.116028 0.332083 -0.176376
C7    C     C_R   0.437513 0.059394 0.415444 0.070267
C8    C     C_R   0.427415 0.928463 0.417512 0.071149
C9    C     C_R   0.508784 0.870313 0.481406 -0.186913
C10   C     C_R   0.624810 0.937166 0.511895 -0.053737
C11   C     C_R   0.605150 0.062340 0.538332 0.033507
C12   C     C_R   0.478545 0.501819 0.682561 0.824102
C13   C     C_R   0.506531 0.126462 0.489046 -0.152132
C14   C     C_R   0.867692 0.343219 0.364837 -0.136998
C15   C     C_R   0.945145 0.271169 0.295505 -0.209978
C16   C     C_R   0.087703 0.273830 0.294134 -0.183207
C17   C     C_R   0.153337 0.346269 0.363427 -0.129619
C18   C     C_R   0.079821 0.425807 0.431998 0.171488
C19   C     C_R   0.930915 0.424907 0.432478 0.207434
C20   C     C_R   0.918608 0.565756 0.567814 -0.114854
C21   C     C_R   0.065528 0.565308 0.569443 0.046600
C22   C     C_R   0.500349 0.262067 0.498386 0.774169
C23   C     C_R   0.521248 0.497430 0.317503 0.784198
C24   C     C_1   0.526624 0.480057 0.214982 -0.181583
C25   C     C_2   0.495532 0.434347 0.029479 0.032090
C26   C     C_2   0.480667 0.531604 0.974927 -0.226631
C27   C     C_1   0.472313 0.518752 0.872069 -0.013053
C28   C     C_1   0.517086 0.460293 0.129861 -0.055811
Cu1   Cu    Cu3+1 0.359340 0.500010 0.500010 0.926675
Cu2   Cu    Cu3+1 0.640660 0.499990 0.499990 0.930197
H1    H     H_    0.485492 0.625600 0.007178 0.147095
H2    H     H_    0.758953 0.328931 0.363098 0.193359
H3    H     H_    0.893898 0.211010 0.243710 0.142588
H4    H     H_    0.147243 0.217111 0.240255 0.149094
H5    H     H_    0.261092 0.334740 0.363050 0.197266
H6    H     H_    0.353805 0.760012 0.341466 0.154103
H7    H     H_    0.283938 0.864862 0.202862 0.122196
H8    H     H_    0.327654 0.088786 0.189927 0.136821
H9    H     H_    0.429373 0.211661 0.320614 0.103635
H10   H     H_    0.856880 0.618327 0.623743 0.141859
N1    N     N_R   0.852210 0.498790 0.499090 -0.198562
N2    N     N_R   0.148080 0.498710 0.499060 -0.215360
O1    O     O_R   0.381190 0.680360 0.500010 -0.592559
O2    O     O_R   0.618760 0.680340 0.500000 -0.560675
O3    O     O_R   0.364420 0.499990 0.637850 -0.558001
O4    O     O_R   0.601990 0.499960 0.637840 -0.577390
O5    O     O_R   0.381240 0.319660 0.500000 -0.590412
O6    O     O_R   0.618810 0.319640 0.499990 -0.600658
O7    O     O_R   0.398010 0.500040 0.362160 -0.605130
O8    O     O_R   0.635580 0.500010 0.362150 -0.583090
C29   C     C_R   0.121484 0.627483 0.656089 0.165413
C30   C     C_R   0.177108 0.748871 0.655301 -0.121823
C31   C     C_R   0.221767 0.807516 0.740106 -0.170110
C32   C     C_R   0.207255 0.747244 0.826943 -0.121589
C33   C     C_R   0.147394 0.628419 0.829253 -0.134680
C34   C     C_R   0.103951 0.568972 0.744438 -0.143559
H11   H     H_    0.185893 0.799150 0.590011 0.129970
H12   H     H_    0.266442 0.900274 0.738649 0.124940
H13   H     H_    0.241331 0.792924 0.892586 0.118269
H14   H     H_    0.135071 0.582161 0.896713 0.129765
H15   H     H_    0.057131 0.477031 0.747380 0.116430
C35   C     C_R   0.482937 0.302052 0.993838 0.138898
C36   C     C_R   0.575853 0.214280 0.021427 -0.172263
C37   C     C_R   0.561868 0.089053 0.991635 -0.133617
C38   C     C_R   0.454389 0.049843 0.934909 -0.131149
C39   C     C_R   0.360349 0.135730 0.908128 -0.170994
C40   C     C_R   0.373831 0.261092 0.937747 -0.140290
H16   H     H_    0.659682 0.242861 0.065582 0.126452
H17   H     H_    0.634280 0.022332 0.012741 0.125825
H18   H     H_    0.443869 0.952894 0.911849 0.118944
H19   H     H_    0.276431 0.105039 0.864827 0.125241
H20   H     H_    0.297588 0.325453 0.918343 0.131171
C41   C     C_R   0.757520 0.909071 0.453711 0.153158
C42   C     C_R   0.769524 0.932364 0.354270 -0.147763
C43   C     C_R   0.884769 0.892470 0.294849 -0.148315
C44   C     C_R   0.989651 0.829778 0.333914 -0.079269
C45   C     C_R   0.982620 0.812184 0.432972 -0.118379
C46   C     C_R   0.867217 0.851981 0.493375 -0.121823
H21   H     H_    0.687870 0.978314 0.321811 0.134569
H22   H     H_    0.891249 0.907823 0.218181 0.121162
H23   H     H_    0.075724 0.793593 0.287278 0.121344
H24   H     H_    0.065721 0.764625 0.461470 0.129258
H25   H     H_    0.861166 0.834690 0.569690 0.106585
C47   C     C_3   0.704368 0.123718 0.607193 -0.371040
C48   C     C_3   0.628208 0.179428 0.700186 -0.315848
C49   C     C_3   0.729179 0.251200 0.762669 -0.815603
H26   H     H_    0.807945 0.187938 0.785791 0.240079
H27   H     H_    0.782342 0.326535 0.721806 0.257658
H28   H     H_    0.671727 0.293839 0.828000 0.256529
H29   H     H_    0.545924 0.243064 0.683592 0.213099
H30   H     H_    0.577917 0.103463 0.741800 0.219263
H31   H     H_    0.776869 0.053831 0.629449 0.179346
H32   H     H_    0.772095 0.193455 0.570143 0.228049

loop_
_geom_bond_atom_site_label_1
_geom_bond_atom_site_label_2
_ccdc_geom_bond_type
C22   O6    A    
C33   C34   A    
Cu1   N2    S    
C41   C42   A    
C2    C12   S    
C20   N1    A    
C48   H30   S    
C7    C8    A    
Cu1   O7    S    
C45   C46   A    
C25   C28   S    
C26   C27   S    
Cu1   Cu2   S    
C35   C40   A    
Cu1   O5    S    
C45   H24   S    
Cu2   O6    S    
C40   H20   S    
C18   N2    A    
C48   C49   S    
C5    C6    A    
C20   H10   S    
C10   C41   S    
C49   H27   S    
C23   O7    A    
C15   C16   A    
C18   C19   A    
C16   H4    S    
C36   H16   S    
C46   H25   S    
C1    O1    A    
C8    C9    A    
C23   C24   S    
Cu2   N1    S    
C2    C27   T    
C9    C10   A    
C25   C35   S    
C22   O5    A    
Cu2   O8    S    
C26   H1    S    
C33   H14   S    
Cu1   O1    S    
Cu2   O2    S    
C32   H13   S    
C42   C43   A    
C29   C30   A    
C1    C9    S    
C47   C48   S    
C12   O4    A    
C3    C8    A    
C10   C11   A    
C49   H26   S    
C16   C17   A    
C23   O8    A    
C25   C26   D    
C31   C32   A    
C41   C46   A    
C21   N2    A    
Cu1   O3    S    
C29   C34   A    
C43   C44   A    
C35   C36   A    
C1    O2    A    
C39   H19   S    
C14   C15   A    
C7    C13   A    
C48   H29   S    
C20   C21   A    
C17   C18   A    
C37   H17   S    
C44   C45   A    
C42   H21   S    
C3    C4    A    
C21   C29   S    
C30   C31   A    
C43   H22   S    
C32   C33   A    
C6    H9    S    
C14   C19   A    
Cu2   O4    S    
C24   C28   T    
C14   H2    S    
C12   O3    A    
C49   H28   S    
C44   H23   S    
C31   H12   S    
C6    C7    A    
C11   C47   S    
C47   H31   S    
C37   C38   A    
C11   C13   A    
C3    H6    S    
C13   C22   S    
C39   C40   A    
C47   H32   S    
C30   H11   S    
C36   C37   A    
C19   N1    A    
C4    C5    A    
C4    H7    S    
C38   C39   A    
C34   H15   S    
C17   H5    S    
C5    H8    S    
C15   H3    S    
C38   H18   S    
