data_str_m12_o4_o9_f0_bcu.sym.13
_audit_creation_date              2012-12-11T17:10:18-0500
_audit_creation_method            fapswitch 2.2
_symmetry_space_group_name_H-M    P1
_symmetry_Int_Tables_number       1
_space_group_crystal_system       triclinic
_cell_length_a                    14.766423
_cell_length_b                    15.038831
_cell_length_c                    14.867014
_cell_angle_alpha                 109.74794
_cell_angle_beta                  109.495668
_cell_angle_gamma                 109.141585
_cell_volume                      2542.3452879

loop_
_atom_site_label
_atom_site_type_symbol
_atom_type_description
_atom_site_fract_x
_atom_site_fract_y
_atom_site_fract_z
_atom_type_partial_charge
C1    C     C_R   0.200850 0.291814 0.192711 0.008844
C2    C     C_R   0.473339 0.563762 0.249254 -0.075036
C3    C     C_R   0.497880 0.801036 0.589464 -0.150590
C4    C     C_R   0.599068 0.508367 0.805980 -0.132295
C5    C     C_R   0.707957 0.399937 0.410972 -0.109083
C6    C     C_R   0.438604 0.800796 0.495256 0.043800
C7    C     C_R   0.799775 0.425860 0.503710 0.085234
C8    C     C_R   0.552188 0.549132 0.224702 0.044043
C9    C     C_R   0.828534 0.822120 0.776557 0.063381
C10   C     C_R   0.876903 0.151043 0.099604 -0.110125
C11   C     C_R   0.893985 0.234979 0.194116 -0.024656
C12   C     C_R   0.567760 0.567391 0.869579 0.066032
C13   C     C_R   0.950208 0.245060 0.298568 0.003511
C14   C     C_R   0.991326 0.173946 0.305461 -0.103654
C15   C     C_R   0.975602 0.092971 0.211133 -0.106651
C16   C     C_R   0.432271 0.187522 0.406489 -0.185554
C17   C     C_R   0.917494 0.080801 0.108318 -0.151690
C18   C     C_R   0.870992 0.324049 0.405451 -0.178994
C19   C     C_R   0.879695 0.386468 0.505741 0.091313
C20   C     C_R   0.975319 0.424583 0.604911 0.032472
C21   C     C_R   0.070580 0.433251 0.601073 -0.229203
C22   C     C_R   0.068567 0.396526 0.500053 0.068743
C23   C     C_R   0.456169 0.173693 0.496183 -0.001950
C24   C     C_R   0.964709 0.325555 0.401682 -0.012971
C25   C     C_R   0.059671 0.548408 0.808071 -0.222315
C26   C     C_R   0.064153 0.568574 0.909345 0.334494
C27   C     C_R   0.986869 0.487883 0.913398 -0.102801
C28   C     C_R   0.276766 0.524492 0.591932 -0.127492
C29   C     C_R   0.905762 0.388388 0.817451 -0.205281
C30   C     C_R   0.900447 0.368891 0.716538 -0.132883
C31   C     C_R   0.977585 0.448591 0.711091 0.070882
C32   C     C_R   0.664129 0.560343 0.037594 0.131286
C33   C     C_R   0.608152 0.604263 0.986993 0.025902
C34   C     C_R   0.172798 0.446038 0.499712 0.021819
C35   C     C_R   0.576170 0.669738 0.047022 -0.174270
C36   C     C_R   0.573883 0.666134 0.139238 -0.181461
C37   C     C_R   0.602073 0.595843 0.169997 0.034667
C38   C     C_R   0.660961 0.555918 0.127799 0.136352
C39   C     C_3   0.654150 0.446910 0.089161 -0.457066
C40   C     C_R   0.535680 0.274614 0.590275 0.338724
C41   C     C_3   0.657401 0.451784 0.990776 -0.473116
C42   C     C_R   0.406765 0.893908 0.395062 0.130382
C43   C     C_R   0.411941 0.881288 0.484899 0.066926
C44   C     C_R   0.404150 0.953808 0.566697 -0.203118
C45   C     C_R   0.406452 0.706815 0.405795 -0.107574
C46   C     C_R   0.408078 0.047387 0.565687 -0.161327
C47   C     C_R   0.422824 0.067923 0.484753 0.046265
C48   C     C_R   0.413861 0.986806 0.394925 -0.049867
C49   C     C_3   0.488926 0.991064 0.345324 -0.085348
C50   C     C_3   0.478289 0.886465 0.344642 -0.578971
C51   C     C_R   0.123134 0.011948 0.982494 0.175535
C52   C     C_R   0.184601 0.434121 0.408248 -0.078493
C53   C     C_R   0.124468 0.111423 0.013887 0.038242
C54   C     C_R   0.042961 0.116629 0.935994 -0.219040
C55   C     C_R   0.946504 0.019938 0.847697 -0.209870
C56   C     C_R   0.799136 0.493552 0.593107 -0.158593
C57   C     C_R   0.935832 0.919479 0.834992 0.028462
C58   C     C_R   0.030556 0.917446 0.893943 0.155445
C59   C     C_3   0.045654 0.853297 0.950399 -0.521639
C60   C     C_3   0.147318 0.957056 0.047574 -0.515643
C61   C     C_R   0.503905 0.595117 0.804952 -0.137063
C62   C     C_R   0.293839 0.202417 0.195756 -0.155042
C63   C     C_R   0.199723 0.198133 0.129457 -0.022853
C64   C     C_2   0.136873 0.340546 0.151827 0.421582
C65   C     C_2   0.858649 0.314325 0.183155 0.450362
C66   C     C_3   0.151115 0.674863 0.013215 -0.984934
C67   C     C_R   0.569102 0.475436 0.254458 -0.149764
C68   C     C_2   0.438913 0.978337 0.231324 0.638369
C69   C     C_2   0.605807 0.086225 0.424016 0.496284
C70   C     C_3   0.613321 0.292529 0.697906 -1.079140
C71   C     C_R   0.725406 0.814212 0.750869 -0.132833
C72   C     C_R   0.814841 0.719436 0.747036 -0.138385
H1    H     H_    0.849363 0.520870 0.678640 0.116033
H2    H     H_    0.668496 0.496780 0.838015 0.117386
H3    H     H_    0.034846 0.180563 0.384318 0.120038
H4    H     H_    0.007731 0.038888 0.217662 0.113959
H5    H     H_    0.792504 0.277013 0.329453 0.139440
H6    H     H_    0.146591 0.471333 0.677637 0.129654
H7    H     H_    0.119424 0.610211 0.804385 0.126052
H8    H     H_    0.989729 0.501967 0.990979 0.139780
H9    H     H_    0.847041 0.326132 0.821427 0.150591
H10   H     H_    0.837314 0.291166 0.642952 0.143937
H11   H     H_    0.540071 0.712420 0.015997 0.143043
H12   H     H_    0.628552 0.449347 0.252862 0.110675
H13   H     H_    0.372617 0.126158 0.321648 0.104114
H14   H     H_    0.536436 0.706617 0.175808 0.139014
H15   H     H_    0.729124 0.450656 0.145254 0.213469
H16   H     H_    0.573822 0.379997 0.064967 0.196548
H17   H     H_    0.733963 0.457598 0.989515 0.208828
H18   H     H_    0.578499 0.388636 0.912676 0.194663
H19   H     H_    0.403815 0.942646 0.634846 0.133568
H20   H     H_    0.409537 0.107438 0.632633 0.140963
H21   H     H_    0.430544 0.811832 0.262145 0.224180
H22   H     H_    0.299321 0.556051 0.677526 0.102300
H23   H     H_    0.706238 0.879283 0.763131 0.099547
H24   H     H_    0.556636 0.894903 0.400874 0.178298
H25   H     H_    0.048226 0.192813 0.946311 0.132886
H26   H     H_    0.877612 0.024224 0.796915 0.135379
H27   H     H_    0.978989 0.822738 0.969438 0.202311
H28   H     H_    0.065076 0.791472 0.908671 0.205403
H29   H     H_    0.138870 0.986097 0.122195 0.198388
H30   H     H_    0.224971 0.954439 0.061632 0.204656
H31   H     H_    0.121199 0.383339 0.323512 0.112339
H32   H     H_    0.480182 0.655285 0.833272 0.095666
H33   H     H_    0.330377 0.154891 0.168541 0.112593
H34   H     H_    0.876882 0.695612 0.752356 0.111020
H35   H     H_    0.346365 0.674312 0.320869 0.135890
H36   H     H_    0.049830 0.290796 0.090793 0.027811
H37   H     H_    0.882615 0.386860 0.255695 0.013123
H38   H     H_    0.203808 0.660371 0.073475 0.262846
H39   H     H_    0.204768 0.730949 0.996659 0.280226
H40   H     H_    0.111088 0.714693 0.049952 0.248032
H41   H     H_    0.432698 0.044779 0.222083 -0.030994
H42   H     H_    0.648781 0.104218 0.508502 0.014176
H43   H     H_    0.574898 0.294910 0.750428 0.252705
H44   H     H_    0.632633 0.225333 0.683867 0.255620
H45   H     H_    0.440539 0.615780 0.237388 0.094671
H46   H     H_    0.692526 0.368895 0.739359 0.255623
H47   H     H_    0.523843 0.856941 0.673330 0.101902
H48   H     H_    0.674346 0.338391 0.326954 0.101623
H49   H     H_    0.904759 0.017369 0.035246 0.136665
H50   H     H_    0.834292 0.141164 0.018861 0.151895
N1    N     N_R   0.291070 0.347930 0.293870 -0.047662
N2    N     N_R   0.497240 0.291100 0.443210 -0.046339
N3    N     N_R   0.347890 0.554050 0.556810 -0.046859
N4    N     N_R   0.554050 0.347900 0.556830 -0.054827
N5    N     N_R   0.291070 0.497250 0.443190 -0.029217
N6    N     N_R   0.497240 0.554030 0.706140 -0.043892
N7    N     N_R   0.347890 0.291110 0.293870 -0.050926
N8    N     N_R   0.445950 0.652100 0.443170 -0.038066
N9    N     N_R   0.708930 0.502750 0.556810 -0.043341
N10   N     N_R   0.502760 0.445970 0.293860 -0.045274
N11   N     N_R   0.652110 0.708890 0.706130 -0.040119
N12   N     N_R   0.708930 0.652070 0.706130 -0.042528
N13   N     N_R   0.445950 0.502780 0.293850 -0.028835
N14   N     N_R   0.502760 0.708900 0.556790 -0.043577
N15   N     N_R   0.652110 0.445950 0.443190 -0.044968
N16   N     N_R   0.554050 0.497220 0.706150 -0.041832
Ni1   Ni    Ni4+2 0.369690 0.500010 0.369700 0.281118
Ni2   Ni    Ni4+2 0.630310 0.499990 0.630300 0.207062
Ni3   Ni    Ni4+2 0.500000 0.369720 0.369720 0.216590
Ni4   Ni    Ni4+2 0.500000 0.630280 0.630280 0.209056
O1    O     O_2   0.180757 0.438889 0.189700 -0.602370
O2    O     O_2   0.803236 0.300366 0.092451 -0.597348
O3    O     O_2   0.410118 0.896288 0.148933 -0.620517
O4    O     O_2   0.652976 0.143698 0.394469 -0.614588

loop_
_geom_bond_atom_site_label_1
_geom_bond_atom_site_label_2
_ccdc_geom_bond_type
C25   C31   A    
C41   H17   S    
C52   H31   S    
C59   H28   S    
C49   C68   S    
C27   C29   A    
C59   H27   S    
C67   N10   A    
C9    C72   A    
C39   H15   S    
C3    C6    A    
C39   C41   S    
C62   H33   S    
C53   C54   A    
N13   Ni1   S    
N4    Ni2   S    
C26   C27   A    
C37   C38   A    
C40   C70   S    
C18   C24   A    
C7    C56   A    
C36   C37   A    
C6    C45   A    
C16   H13   S    
C18   C19   A    
C18   H5    S    
N12   Ni2   S    
C30   C31   A    
C71   H23   S    
N7    Ni3   S    
C10   C17   A    
C23   C40   A    
N1    Ni1   S    
C28   H22   S    
C3    N14   A    
N6    N16   A    
C53   C63   S    
N14   Ni4   S    
N9    Ni2   S    
C46   C47   A    
C2    H45   S    
C35   C36   A    
C21   H6    S    
C32   C41   S    
C54   H25   S    
C32   C38   A    
C66   H39   S    
C4    C12   A    
C29   C30   A    
C4    H2    S    
C68   H41   S    
C15   H4    S    
C28   C34   A    
C45   N8    A    
C49   C69   S    
C13   C14   A    
N1    N7    A    
C69   O4    D    
C62   N7    A    
N5    Ni1   S    
C39   H16   S    
C60   H30   S    
N8    Ni1   S    
C1    C63   A    
C52   N5    A    
C44   C46   A    
C64   H36   S    
C22   C34   S    
N8    N14   A    
C69   H42   S    
C23   C47   S    
C5    H48   S    
C26   C66   S    
C61   H32   S    
C27   H8    S    
C5    C7    A    
C65   O2    D    
C35   H11   S    
C70   H44   S    
C58   C59   S    
C13   C24   S    
C51   C53   A    
C30   H10   S    
C43   C44   A    
C1    N1    A    
C29   H9    S    
C62   C63   A    
N9    N15   A    
C72   N12   A    
C47   C48   A    
N3    Ni4   S    
C40   N4    A    
N11   Ni4   S    
C51   C58   A    
C42   C48   A    
C66   H38   S    
C65   H37   S    
C44   H19   S    
C3    H47   S    
C42   C50   S    
C17   H49   S    
C48   C49   S    
C72   H34   S    
C16   C23   A    
C7    C19   S    
C6    C43   S    
C55   C57   A    
N11   N12   A    
C22   C24   A    
N2    Ni3   S    
C8    C37   S    
C60   H29   S    
C1    C64   S    
C28   N3    A    
N2    N4    A    
N10   Ni3   S    
C15   C17   A    
N15   Ni3   S    
C54   C55   A    
C56   H1    S    
C25   H7    S    
C2    C8    A    
C9    C71   A    
C10   H50   S    
C71   N11   A    
C50   H21   S    
C5    N15   A    
N16   Ni2   S    
C64   O1    D    
C70   H43   S    
C34   C52   A    
C2    N13   A    
C36   H14   S    
C14   H3    S    
C19   C20   A    
C25   C26   A    
C32   C33   A    
C12   C61   A    
C11   C13   A    
C50   H24   S    
C57   C58   A    
C38   C39   S    
C67   H12   S    
C70   H46   S    
N10   N13   A    
C55   H26   S    
C33   C35   A    
C41   H18   S    
C61   N6    A    
C9    C57   S    
C16   N2    A    
C56   N9    A    
C10   C11   A    
C4    N16   A    
C45   H35   S    
C59   C60   S    
C46   H20   S    
C20   C21   A    
C8    C67   A    
C49   C50   S    
C42   C43   A    
N3    N5    A    
C14   C15   A    
C51   C60   S    
C66   H40   S    
C12   C33   S    
C21   C22   A    
N6    Ni4   S    
C68   O3    D    
C11   C65   S    
C20   C31   S    
