data_str_m2_o1_o18_f0_pcu.sym.213
_audit_creation_date              2013-03-05T16:04:39-0500
_audit_creation_method            fapswitch 2.2
_symmetry_space_group_name_H-M    P1
_symmetry_Int_Tables_number       1
_space_group_crystal_system       triclinic
_cell_length_a                    9.60006
_cell_length_b                    10.773739
_cell_length_c                    15.472892
_cell_angle_alpha                 87.545255
_cell_angle_beta                  74.141476
_cell_angle_gamma                 88.842315
_cell_volume                      1537.95595746

loop_
_atom_site_label
_atom_site_type_symbol
_atom_site_description
_atom_site_fract_x
_atom_site_fract_y
_atom_site_fract_z
_atom_type_partial_charge
O1    O     O_R   0.118740 0.319660 0.500000 -0.610724
O2    O     O_R   0.881260 0.680340 0.500000 -0.603469
O3    O     O_R   0.881170 0.319630 0.500010 -0.552303
O4    O     O_R   0.118830 0.680370 0.499990 -0.554755
C1    C     C_R   0.999903 0.262417 0.502614 0.874895
C2    C     C_R   0.000188 0.737566 0.497180 0.878789
O5    O     O_R   0.055570 0.500030 0.629830 -0.605277
O6    O     O_R   0.944430 0.499970 0.370170 -0.612848
O7    O     O_R   0.818000 0.500000 0.629840 -0.571387
O8    O     O_R   0.182000 0.500000 0.370160 -0.570564
C3    C     C_R   0.917954 0.503905 0.671988 0.830014
C4    C     C_R   0.082091 0.501438 0.327863 0.830010
Cu1   Cu    Cu3+1 0.140660 0.500020 0.500000 0.963387
Cu2   Cu    Cu3+1 0.859340 0.499980 0.500000 0.961796
C5    C     C_R   0.871442 0.524178 0.769129 -0.040000
C6    C     C_R   0.128278 0.506342 0.229153 -0.036008
C7    C     C_R   0.915253 0.601347 0.903982 -0.203338
C8    C     C_R   0.078090 0.485219 0.085841 -0.202695
C9    C     C_R   0.966484 0.570732 0.814021 -0.216206
C10   C     C_R   0.030205 0.485494 0.179179 -0.204804
C11   C     C_R   0.725122 0.509515 0.814978 -0.209936
C12   C     C_R   0.273808 0.530659 0.184761 -0.184104
C13   C     C_R   0.669688 0.545824 0.904201 0.086129
C14   C     C_R   0.324339 0.533660 0.090434 0.083292
C15   C     C_R   0.768281 0.587075 0.949854 0.165609
C16   C     C_R   0.223923 0.508175 0.041232 0.170611
C17   C     C_R   0.519505 0.539854 0.949519 0.076811
C18   C     C_R   0.472392 0.556225 0.043786 0.069734
C19   C     C_R   0.574490 0.596253 0.087422 -0.199181
C20   C     C_R   0.414762 0.521607 0.902840 -0.217719
C21   C     C_R   0.719042 0.613807 0.040584 -0.229276
C22   C     C_R   0.269937 0.505503 0.947959 -0.240729
H1    H     H_    0.793326 0.646351 0.076157 0.150363
H2    H     H_    0.194020 0.488531 0.909438 0.147701
H3    H     H_    0.346764 0.543475 0.225439 0.155722
H4    H     H_    0.656492 0.467586 0.779861 0.157637
H5    H     H_    0.917359 0.466659 0.212205 0.158220
H6    H     H_    0.079443 0.585793 0.779250 0.154398
H7    H     H_    0.990126 0.637909 0.937468 0.144659
H8    H     H_    0.001321 0.465045 0.048566 0.145740
H9    H     H_    0.545265 0.619161 0.157243 0.151004
H10   H     H_    0.441755 0.523126 0.830637 0.147275
C23   C     C_R   0.884994 0.059943 0.561337 0.372962
C24   C     C_R   0.114255 0.940122 0.436865 0.352570
C25   C     C_R   0.885452 0.931626 0.554925 -0.301425
C26   C     C_R   0.114886 0.068402 0.444407 -0.292284
H11   H     H_    0.799491 0.877532 0.599895 0.190524
H12   H     H_    0.200760 0.122851 0.399689 0.198905
C27   C     C_R   0.999320 0.871745 0.494412 -0.206592
C28   C     C_R   0.000945 0.128213 0.504968 -0.207660
C29   C     C_R   0.554219 0.419432 0.554593 -0.032058
C30   C     C_R   0.446065 0.579535 0.444640 -0.058619
H13   H     H_    0.595407 0.354392 0.596828 0.189064
H14   H     H_    0.405980 0.642698 0.400427 0.179518
C31   C     C_R   0.405155 0.420392 0.557381 0.200535
C32   C     C_R   0.593499 0.582807 0.445299 0.184624
N1    N     N_R   0.352080 0.500030 0.499980 -0.193570
N2    N     N_R   0.647920 0.499970 0.500020 -0.194368
N3    N     N_R   0.770020 0.118272 0.627444 0.113092
O9    O     O_R   0.640318 0.071981 0.649104 -0.401445
O10   O     O_R   0.798238 0.206585 0.674784 -0.411332
N4    N     N_R   0.225667 0.882394 0.367873 0.111088
O11   O     O_R   0.351795 0.934342 0.337612 -0.391741
O12   O     O_R   0.194718 0.790214 0.324905 -0.406208
C33   C     C_3   0.312098 0.328542 0.624905 -0.354849
C34   C     C_3   0.297946 0.359679 0.723364 -0.441409
C35   C     C_3   0.383800 0.269983 0.769038 -0.725422
H15   H     H_    0.357458 0.172168 0.760415 0.276765
H16   H     H_    0.501733 0.284539 0.741369 0.281147
H17   H     H_    0.354885 0.285868 0.842165 0.240048
H18   H     H_    0.331312 0.456766 0.727547 0.213205
H19   H     H_    0.182163 0.353235 0.762437 0.228838
H20   H     H_    0.202202 0.323750 0.619253 0.243705
H21   H     H_    0.357638 0.233553 0.610237 0.201042
C36   C     C_3   0.682638 0.682789 0.384441 -0.402008
C37   C     C_3   0.641137 0.811958 0.422481 -0.339444
C38   C     C_3   0.730526 0.913583 0.361564 -0.744244
H22   H     H_    0.848003 0.896544 0.352802 0.252062
H23   H     H_    0.708450 0.916346 0.294646 0.265967
H24   H     H_    0.701088 0.005133 0.392221 0.250706
H25   H     H_    0.524656 0.831505 0.429434 0.250683
H26   H     H_    0.658364 0.815148 0.490443 0.240884
H27   H     H_    0.799172 0.668835 0.372397 0.259924
H28   H     H_    0.662854 0.680061 0.316953 0.168352

loop_
_geom_bond_atom_site_label_1
_geom_bond_atom_site_label_2
_geom_bond_distance
_ccdc_geom_bond_type
C24   C27   1.411629 A    
C15   C21   1.394161 A    
O5    Cu1   1.950877 S    
C16   C22   1.390481 A    
C8    C16   1.403160 A    
C36   C37   1.536695 S    
C11   H4    1.078006 S    
C38   H22   1.110934 S    
O5    C3    1.304502 A    
C12   H3    1.076124 S    
O1    C1    1.297912 A    
C6    C10   1.398603 A    
C14   C16   1.419128 A    
C36   H28   1.112921 S    
Cu1   N1    2.029561 S    
C33   H20   1.084615 S    
C7    H7    1.082932 S    
O4    Cu1   1.950097 S    
C8    H8    1.082843 S    
N4    O12   1.301169 A    
C3    C5    1.470938 S    
C34   H19   1.112688 S    
C4    C6    1.468350 S    
C30   H14   1.082854 S    
C6    C12   1.402580 A    
C21   H1    1.084254 S    
C13   C17   1.421925 A    
C29   C31   1.419691 A    
C23   N3    1.438563 S    
C38   H23   1.111269 S    
C34   C35   1.529780 S    
N3    O9    1.301589 A    
C32   C36   1.513042 S    
Cu1   Cu2   2.700699 S    
C17   C20   1.410135 A    
O2    C2    1.297860 A    
C31   C33   1.518535 S    
C24   C26   1.392212 A    
C25   H11   1.084294 S    
Cu2   N2    2.029562 S    
C26   H12   1.084216 S    
N3    O10   1.301454 A    
C35   H15   1.110663 S    
C37   C38   1.526794 S    
O4    C2    1.294329 A    
C37   H26   1.110259 S    
C24   N4    1.440947 S    
C33   H21   1.112458 S    
C29   H13   1.079445 S    
C22   H2    1.082575 S    
C5    C9    1.400440 A    
O7    Cu2   1.938523 S    
N4    O11   1.301407 A    
C9    H6    1.082828 S    
O7    C3    1.301466 A    
C34   H18   1.109759 S    
C25   C27   1.397035 A    
O6    C4    1.304772 A    
C29   N2    1.352307 A    
C23   C25   1.390079 A    
O3    Cu2   1.950096 S    
O8    C4    1.300030 A    
C31   N1    1.396061 A    
C12   C14   1.405765 A    
C1    C28   1.444680 S    
O1    Cu1   1.958735 S    
C38   H24   1.110542 S    
C18   C19   1.416406 A    
O6    Cu2   1.950877 S    
C19   H9    1.077551 S    
C14   C18   1.427757 A    
O3    C1    1.294371 A    
O8    Cu1   1.938524 S    
C37   H25   1.110415 S    
C23   C28   1.410074 A    
C26   C28   1.397443 A    
C35   H17   1.108880 S    
C7    C15   1.403664 A    
C11   C13   1.406565 A    
C19   C21   1.391383 A    
C20   C22   1.385426 A    
C10   H5    1.083214 S    
C36   H27   1.091128 S    
C7    C9    1.395285 A    
C32   N2    1.394447 A    
C8    C10   1.390875 A    
C13   C15   1.414796 A    
C2    C27   1.444334 S    
O2    Cu2   1.958735 S    
C30   N1    1.351723 A    
C5    C11   1.398613 A    
C33   C34   1.542952 S    
C17   C18   1.421768 A    
C20   H10   1.075141 S    
C35   H16   1.107334 S    
C30   C32   1.419359 A    
