data_str_m2_o9_o21_f0_pcu.sym.92
_audit_creation_date              2012-12-10T19:47:27-0500
_audit_creation_method            fapswitch 2.2
_symmetry_space_group_name_H-M    P1
_symmetry_Int_Tables_number       1
_space_group_crystal_system       triclinic
_cell_length_a                    10.835675
_cell_length_b                    10.865751
_cell_length_c                    12.708959
_cell_angle_alpha                 93.134043
_cell_angle_beta                  92.219754
_cell_angle_gamma                 89.482269
_cell_volume                      1492.92921316

loop_
_atom_site_label
_atom_site_type_symbol
_atom_type_description
_atom_site_fract_x
_atom_site_fract_y
_atom_site_fract_z
_atom_type_partial_charge
C1    C     C_R   0.261953 0.504406 0.501662 0.800973
C2    C     C_R   0.738047 0.495586 0.498339 0.800957
C3    C     C_R   0.504151 0.871733 0.498945 -0.080860
C4    C     C_R   0.495831 0.128269 0.501057 -0.080859
C5    C     C_R   0.558059 0.933059 0.417416 0.027620
C6    C     C_R   0.441932 0.066945 0.582592 0.027635
C7    C     C_R   0.224516 0.662481 0.845602 -0.273020
C8    C     C_R   0.775622 0.337877 0.154271 -0.273042
C9    C     C_R   0.185951 0.591640 0.755517 -0.120475
C10   C     C_R   0.814145 0.408579 0.244452 -0.120493
C11   C     C_R   0.118733 0.645640 0.673046 0.040443
C12   C     C_R   0.881263 0.354432 0.326904 0.040493
C13   C     C_R   0.085402 0.770743 0.685327 -0.299239
C14   C     C_R   0.914519 0.229315 0.314525 -0.299259
C15   C     C_R   0.118876 0.840292 0.777746 0.380211
C16   C     C_R   0.881062 0.159893 0.222022 0.380206
C17   C     C_R   0.191299 0.786824 0.857240 0.405099
C18   C     C_R   0.808759 0.213520 0.142531 0.405132
C19   C     C_R   0.934113 0.564099 0.577308 -0.145930
C20   C     C_R   0.065893 0.435841 0.422719 -0.146045
C21   C     C_R   0.871447 0.496569 0.495357 -0.061961
C22   C     C_R   0.128558 0.503393 0.504657 -0.061879
C23   C     C_R   0.497252 0.261912 0.500542 0.802416
C24   C     C_R   0.502743 0.738089 0.499459 0.802444
C25   C     C_R   0.937800 0.431291 0.416179 0.091765
C26   C     C_R   0.062206 0.568671 0.583837 0.091909
C27   C     C_2   0.458549 0.475145 0.031119 -0.259254
C28   C     C_2   0.541428 0.524877 0.968880 -0.259245
C29   C     C_1   0.527563 0.521628 0.852821 0.240817
C30   C     C_1   0.472426 0.478379 0.147179 0.240852
C31   C     C_R   0.353309 0.199651 0.850364 -0.153468
C32   C     C_R   0.646842 0.800305 0.149699 -0.153607
C33   C     C_R   0.420758 0.140438 0.770625 -0.083461
C34   C     C_R   0.579340 0.859520 0.229402 -0.083511
C35   C     C_R   0.372527 0.132591 0.666443 0.038728
C36   C     C_R   0.627526 0.867420 0.333599 0.038802
C37   C     C_R   0.255694 0.183126 0.642956 -0.178205
C38   C     C_R   0.744380 0.816956 0.357131 -0.178347
C39   C     C_R   0.187384 0.240254 0.723269 0.453663
C40   C     C_R   0.812751 0.759842 0.276851 0.453584
C41   C     C_R   0.236783 0.249566 0.826815 -0.121515
C42   C     C_R   0.763379 0.750446 0.173296 -0.121501
C43   C     C_R   0.447508 0.939024 0.581065 -0.190754
C44   C     C_R   0.552472 0.060977 0.418938 -0.190762
Cu1   Cu    Cu3+1 0.492140 0.492110 0.395880 1.002370
Cu2   Cu    Cu3+1 0.507860 0.507890 0.604120 1.002364
H1    H     H_    0.184070 0.293422 0.889254 0.176649
H2    H     H_    0.816132 0.706590 0.110883 0.176663
H3    H     H_    0.028009 0.812520 0.625098 0.197604
H4    H     H_    0.971835 0.187424 0.374744 0.197600
H5    H     H_    0.882444 0.614470 0.637403 0.162155
H6    H     H_    0.117564 0.385475 0.362621 0.162150
H7    H     H_    0.623277 0.568704 0.005161 0.153553
H8    H     H_    0.376696 0.431332 0.994838 0.153583
H9    H     H_    0.390764 0.205418 0.930648 0.178622
H10   H     H_    0.609426 0.794505 0.069402 0.178534
H11   H     H_    0.510386 0.100891 0.789868 0.180043
H12   H     H_    0.489706 0.899029 0.210121 0.179981
H13   H     H_    0.216790 0.175417 0.563054 0.148457
H14   H     H_    0.783253 0.824717 0.437043 0.148475
H15   H     H_    0.403925 0.891587 0.642636 0.165265
H16   H     H_    0.596062 0.108414 0.357369 0.165279
H17   H     H_    0.276915 0.619614 0.907993 0.182293
H18   H     H_    0.723323 0.380866 0.091888 0.182254
H19   H     H_    0.206906 0.494335 0.751333 0.180057
H20   H     H_    0.793248 0.505897 0.248724 0.180015
N1    N     N_1   0.480320 0.480250 0.239400 -0.157003
N2    N     N_1   0.519680 0.519750 0.760600 -0.157014
O1    O     O_R   0.313000 0.493330 0.412070 -0.560128
O2    O     O_R   0.687000 0.506670 0.587930 -0.560118
O3    O     O_R   0.326280 0.506660 0.587930 -0.596000
O4    O     O_R   0.673720 0.493340 0.412070 -0.595959
O5    O     O_R   0.493370 0.312980 0.412070 -0.580874
O6    O     O_R   0.506630 0.687020 0.587930 -0.580872
O7    O     O_R   0.506650 0.326310 0.587930 -0.563851
O8    O     O_R   0.493350 0.673690 0.412070 -0.563855
Cl1   Cl    Cl    0.059238 0.990081 0.795982 -0.473655
Cl2   Cl    Cl    0.940561 0.010055 0.203677 -0.473728
Cl3   Cl    Cl    0.036617 0.292635 0.695456 -0.598374
Cl4   Cl    Cl    0.963546 0.707562 0.304715 -0.598553
Cl5   Cl    Cl    0.237522 0.872003 0.973557 -0.510612
Cl6   Cl    Cl    0.762580 0.128527 0.026096 -0.510427

loop_
_geom_bond_atom_site_label_1
_geom_bond_atom_site_label_2
_ccdc_geom_bond_type
C27   H8    S    
C39   C41   A    
C15   Cl1   S    
Cu1   Cu2   S    
C3    C43   A    
C1    O3    A    
Cu1   O8    S    
C28   C29   S    
C35   C37   A    
C20   C25   A    
C5    C36   S    
C6    C35   S    
Cu1   O5    S    
C19   C26   A    
C18   Cl6   S    
C7    C17   A    
Cu1   N1    S    
C40   Cl4   S    
C17   Cl5   S    
C30   N1    T    
C40   C42   A    
C1    C22   S    
Cu1   O4    S    
C3    C24   S    
C23   O5    A    
C2    O4    A    
Cu2   O7    S    
C9    H19   S    
C10   H20   S    
C37   C39   A    
Cu1   O1    S    
C4    C6    A    
C23   O7    A    
C4    C23   S    
C24   O8    A    
C4    C44   A    
C11   C26   S    
C44   H16   S    
C8    C18   A    
C39   Cl3   S    
Cu2   N2    S    
C29   N2    T    
C2    C21   S    
C31   C33   A    
C41   H1    S    
C42   H2    S    
C13   H3    S    
C9    C11   A    
C7    H17   S    
Cu2   O3    S    
C37   H13   S    
C10   C12   A    
C8    H18   S    
C38   H14   S    
C8    C10   A    
C5    C44   A    
C12   C14   A    
C6    C43   A    
C13   C15   A    
C14   C16   A    
Cu2   O6    S    
C43   H15   S    
C16   Cl2   S    
C7    C9    A    
C21   C25   A    
C33   H11   S    
C31   C41   A    
C19   C21   A    
C20   C22   A    
C3    C5    A    
C28   H7    S    
C15   C17   A    
C12   C25   S    
C36   C38   A    
C20   H6    S    
C38   C40   A    
C11   C13   A    
C24   O6    A    
C14   H4    S    
C33   C35   A    
C34   C36   A    
C1    O1    A    
Cu2   O2    S    
C19   H5    S    
C16   C18   A    
C22   C26   A    
C27   C28   D    
C34   H12   S    
C32   C42   A    
C31   H9    S    
C2    O2    A    
C32   H10   S    
C32   C34   A    
C27   C30   S    
