data_str_m9_o16_o17_f0_sra.sym.67
_audit_creation_date              2012-12-11T15:07:37-0500
_audit_creation_method            fapswitch 2.2
_symmetry_space_group_name_H-M    P1
_symmetry_Int_Tables_number       1
_space_group_crystal_system       triclinic
_cell_length_a                    21.669207
_cell_length_b                    7.201917
_cell_length_c                    18.785592
_cell_angle_alpha                 90.000244
_cell_angle_beta                  95.46297
_cell_angle_gamma                 90.000015
_cell_volume                      2918.36043513

loop_
_atom_site_label
_atom_site_type_symbol
_atom_type_description
_atom_site_fract_x
_atom_site_fract_y
_atom_site_fract_z
_atom_type_partial_charge
O1    O     O_R   0.449650 0.506500 0.414480 -0.533936
O2    O     O_R   0.550350 0.006500 0.585520 -0.533935
O3    O     O_R   0.432010 0.173150 0.560250 -0.524987
O4    O     O_R   0.567990 0.673150 0.439750 -0.524987
C1    C     C_R   0.415224 0.344691 0.579578 0.692996
C2    C     C_R   0.584776 0.844691 0.420422 0.692992
O5    O     O_R   0.442320 0.176650 0.413480 -0.533733
O6    O     O_R   0.557680 0.676650 0.586520 -0.533734
O7    O     O_R   0.560730 0.008380 0.437700 -0.539743
O8    O     O_R   0.439270 0.508380 0.562300 -0.539746
C3    C     C_R   0.426555 0.345945 0.389445 0.678290
C4    C     C_R   0.573445 0.845946 0.610555 0.678289
O9    O     O_3   0.538840 0.339860 0.508120 -0.361975
O10   O     O_3   0.461160 0.839860 0.491880 -0.361976
V1    V     V_3+5 0.492800 0.064220 0.498490 1.508157
V2    V     V_3+5 0.507200 0.564220 0.501510 1.508153
C5    C     C_R   0.878812 0.913953 0.690331 -0.041646
C6    C     C_R   0.121190 0.414004 0.309670 -0.041642
H1    H     H_    0.800385 0.794523 0.579726 0.115550
H2    H     H_    0.199614 0.294584 0.420277 0.115554
C7    C     C_R   0.887389 0.941657 0.820328 -0.134478
C8    C     C_R   0.112611 0.441663 0.179672 -0.134476
C9    C     C_R   0.585705 0.923820 0.736967 -0.180094
C10   C     C_R   0.414296 0.423795 0.263031 -0.180098
C11   C     C_R   0.619939 0.993351 0.797340 0.003829
C12   C     C_R   0.380063 0.493314 0.202654 0.003831
C13   C     C_R   0.684393 0.996099 0.801114 -0.208089
C14   C     C_R   0.315609 0.496070 0.198880 -0.208090
C15   C     C_R   0.716939 0.914610 0.747347 0.064604
C16   C     C_R   0.283062 0.414605 0.252651 0.064603
C17   C     C_R   0.681637 0.853012 0.683012 0.040830
C18   C     C_R   0.318363 0.353020 0.316988 0.040827
C19   C     C_R   0.783917 0.907457 0.753581 0.005057
C20   C     C_R   0.216084 0.407463 0.246418 0.005054
C21   C     C_R   0.813863 0.884625 0.690036 0.043891
C22   C     C_R   0.186138 0.384659 0.309964 0.043895
C23   C     C_R   0.778450 0.827395 0.627509 -0.183523
C24   C     C_R   0.221550 0.327440 0.372494 -0.183520
C25   C     C_R   0.715051 0.794927 0.625842 -0.070713
C26   C     C_R   0.284948 0.294958 0.374160 -0.070717
C27   C     C_R   0.822216 0.919241 0.820116 -0.035820
C28   C     C_R   0.177784 0.419233 0.179883 -0.035820
C29   C     C_R   0.914766 0.948562 0.755504 -0.115871
C30   C     C_R   0.085235 0.448597 0.244496 -0.115868
C31   C     C_R   0.614899 0.860886 0.678162 -0.094340
C32   C     C_R   0.385101 0.360882 0.321837 -0.094338
H3    H     H_    0.535464 0.931400 0.733577 0.105250
H4    H     H_    0.464537 0.431367 0.266421 0.105249
H5    H     H_    0.708263 0.071829 0.845041 0.150391
H6    H     H_    0.291741 0.571790 0.154950 0.150389
C33   C     C_R   0.638690 0.725811 0.318173 -0.196806
C34   C     C_R   0.361301 0.225789 0.681817 -0.196801
C35   C     C_R   0.636230 0.855796 0.373400 -0.103315
C36   C     C_R   0.363770 0.355798 0.626600 -0.103315
C37   C     C_R   0.681821 0.997393 0.381847 -0.098135
C38   C     C_R   0.318186 0.497415 0.618162 -0.098142
C39   C     C_R   0.725455 0.018421 0.330657 0.046159
C40   C     C_R   0.274552 0.518444 0.669353 0.046154
C41   C     C_R   0.726823 0.886678 0.274915 0.057634
C42   C     C_R   0.273176 0.386677 0.725085 0.057640
C43   C     C_R   0.683948 0.738723 0.269824 0.094768
C44   C     C_R   0.316042 0.238699 0.730165 0.094766
C45   C     C_R   0.767682 0.167952 0.333410 -0.171980
C46   C     C_R   0.232335 0.667996 0.666611 -0.171992
C47   C     C_R   0.810047 0.186401 0.282269 -0.143768
C48   C     C_R   0.189970 0.686443 0.717751 -0.143766
C49   C     C_R   0.812692 0.053804 0.228050 0.085736
C50   C     C_R   0.187316 0.553822 0.771960 0.085722
C51   C     C_R   0.771486 0.901741 0.224502 0.038907
C52   C     C_R   0.228515 0.401739 0.775498 0.038910
C53   C     C_R   0.774691 0.764993 0.170781 0.065990
C54   C     C_R   0.225301 0.264970 0.829210 0.065983
C55   C     C_R   0.730368 0.620303 0.166488 -0.136650
C56   C     C_R   0.269615 0.120253 0.833491 -0.136676
C57   C     C_R   0.685959 0.607506 0.215306 -0.185143
C58   C     C_R   0.314022 0.107456 0.784673 -0.185152
C59   C     C_R   0.856465 0.070888 0.178063 -0.143875
C60   C     C_R   0.143542 0.570902 0.821946 -0.143881
C61   C     C_R   0.862166 0.934459 0.125710 -0.113882
C62   C     C_R   0.137834 0.434456 0.874290 -0.113894
C63   C     C_R   0.821274 0.778153 0.122329 -0.041837
C64   C     C_R   0.178720 0.278135 0.877664 -0.041831
H7    H     H_    0.604521 0.615454 0.312148 0.124871
H8    H     H_    0.395464 0.115413 0.687834 0.124878
H9    H     H_    0.767637 0.273523 0.374428 0.150784
H10   H     H_    0.232387 0.773587 0.625601 0.150787
H11   H     H_    0.841318 0.304209 0.285612 0.161164
H12   H     H_    0.158706 0.804267 0.714417 0.161177
H13   H     H_    0.888182 0.187678 0.181827 0.164903
H14   H     H_    0.111830 0.687705 0.818188 0.164947
H15   H     H_    0.728449 0.516714 0.124779 0.174790
H16   H     H_    0.271526 0.016641 0.875191 0.174791
H17   H     H_    0.652869 0.494291 0.210178 0.136964
H18   H     H_    0.347104 0.994218 0.789791 0.136963
O11   O     O_R   0.060820 0.290050 0.937800 -0.551372
O12   O     O_R   0.939180 0.790050 0.062200 -0.551374
O13   O     O_R   0.057690 0.616620 0.086540 -0.527698
O14   O     O_R   0.942310 0.116620 0.913460 -0.527692
C65   C     C_R   0.071581 0.448793 0.111826 0.761530
C66   C     C_R   0.928419 0.948792 0.888174 0.761526
O15   O     O_R   0.068010 0.619890 0.939770 -0.514739
O16   O     O_R   0.931990 0.119890 0.060230 -0.514739
O17   O     O_R   0.949640 0.787940 0.914460 -0.553564
O18   O     O_R   0.050360 0.287940 0.085540 -0.553562
C67   C     C_R   0.085713 0.450036 0.920860 0.730312
C68   C     C_R   0.914287 0.950037 0.079140 0.730298
O19   O     O_3   0.961210 0.453080 0.991940 -0.377446
O20   O     O_3   0.038790 0.953080 0.008060 -0.377445
V3    V     V_3+5 0.007200 0.728820 0.001500 1.526772
V4    V     V_3+5 0.992800 0.228820 0.998500 1.526782
C69   C     C_1   0.981348 0.976160 0.756878 0.357916
N1    N     N_1   0.034352 0.998346 0.758169 -0.344873
C70   C     C_1   0.018654 0.476206 0.243122 0.357894
N2    N     N_1   0.965651 0.498403 0.241832 -0.344879
C71   C     C_1   0.687109 0.108591 0.446364 0.304895
N3    N     N_1   0.691623 0.194870 0.498515 -0.313120
C72   C     C_1   0.312901 0.608632 0.553650 0.304902
N4    N     N_1   0.308389 0.694925 0.501502 -0.313104
C73   C     C_2   0.827477 0.629877 0.068309 0.401289
H19   H     H_    0.833122 0.665952 0.013372 0.078354
O21   O     O_2   0.829949 0.466494 0.085676 -0.529746
C74   C     C_2   0.172513 0.129849 0.931679 0.401286
H20   H     H_    0.166879 0.165917 0.986619 0.078364
O22   O     O_2   0.170026 0.966473 0.914305 -0.529764
C75   C     C_2   0.909756 0.906658 0.622798 0.408974
H21   H     H_    0.901113 0.792479 0.585596 0.054667
O23   O     O_2   0.945364 0.029310 0.608208 -0.499693
C76   C     C_2   0.090247 0.406751 0.377204 0.408976
H22   H     H_    0.098883 0.292577 0.414409 0.054669
O24   O     O_2   0.054650 0.529435 0.391792 -0.499693
C77   C     C_2   0.796255 0.881168 0.889019 0.265656
H23   H     H_    0.761145 0.774571 0.891741 0.073570
O25   O     O_2   0.811672 0.973711 0.942206 -0.545154
C78   C     C_2   0.203744 0.381134 0.110981 0.265658
H24   H     H_    0.238851 0.274529 0.108262 0.073570
O26   O     O_2   0.188327 0.473663 0.057791 -0.545167
C79   C     C_1   0.588493 0.072776 0.854318 0.311582
N5    N     N_1   0.563233 0.136594 0.900074 -0.321628
C80   C     C_1   0.411511 0.572715 0.145674 0.311578
N6    N     N_1   0.436771 0.636515 0.099915 -0.321630
C81   C     C_1   0.689268 0.681883 0.567463 0.279726
N7    N     N_1   0.671056 0.586560 0.520720 -0.293357
C82   C     C_1   0.310729 0.181919 0.432542 0.279725
N8    N     N_1   0.328938 0.086600 0.479286 -0.293364

loop_
_geom_bond_atom_site_label_1
_geom_bond_atom_site_label_2
_ccdc_geom_bond_type
C48   C50   A    
C45   C47   A    
C6    C22   A    
C9    C31   A    
C13   C15   A    
C38   C72   S    
C35   C37   A    
C69   N1    T    
C49   C59   A    
O2    C4    A    
C76   H22   S    
C2    O7    A    
C43   C57   A    
O5    C3    A    
C59   H13   S    
C56   C58   A    
O14   V4    S    
C21   C23   A    
C10   C12   A    
C48   H12   S    
C60   C62   A    
C39   C41   A    
O15   V3    S    
C71   N3    T    
C15   C19   A    
O13   V3    S    
O20   V3    S    
C42   C44   A    
C56   H16   S    
C51   C53   A    
O11   C67   A    
C58   H18   S    
C7    C29   A    
C14   H6    S    
C8    C30   A    
C25   C81   S    
C17   C25   A    
C20   C28   A    
C47   C49   A    
C33   C43   A    
C47   H11   S    
C16   C18   A    
H1    C23   S    
C6    C76   S    
O5    V1    S    
C65   O18   A    
O6    V2    S    
C45   H9    S    
O15   C67   A    
C55   C57   A    
C44   C58   A    
C29   C69   S    
C46   H10   S    
C12   C14   A    
O13   C65   A    
C34   C36   A    
C39   C45   A    
C73   O21   D    
O9    V2    S    
C50   C60   A    
C36   C38   A    
C41   C43   A    
C9    H3    S    
C16   C20   A    
C10   H4    S    
C1    C36   S    
C55   H15   S    
C54   C56   A    
C12   C80   S    
C53   C55   A    
C7    C66   S    
C78   O26   D    
C40   C46   A    
O3    C1    A    
C62   C67   S    
C66   O17   A    
C60   H14   S    
C61   C68   S    
C49   C51   A    
C46   C48   A    
O4    V2    S    
C11   C79   S    
C5    C29   A    
C6    C30   A    
H2    C24   S    
C42   C52   A    
O6    C4    A    
C59   C61   A    
O1    V2    S    
C73   H19   S    
O2    V1    S    
C41   C51   A    
C7    C27   A    
C62   C64   A    
C30   C70   S    
O14   C66   A    
C37   C39   A    
C75   H21   S    
O19   V4    S    
O16   V4    S    
O4    C2    A    
C2    C35   S    
C74   O22   D    
C77   H23   S    
C33   H7    S    
O3    V1    S    
O18   V4    S    
C27   C77   S    
C70   N2    T    
O12   V3    S    
O12   C68   A    
C8    C65   S    
C18   C32   A    
C4    C31   S    
C77   O25   D    
O11   V4    S    
C76   O24   D    
C52   C54   A    
C80   N6    T    
C14   C16   A    
C78   H24   S    
C11   C13   A    
C79   N5    T    
C63   C73   S    
C61   C63   A    
C28   C78   S    
O17   V3    S    
C19   C27   A    
C34   H8    S    
C82   N8    T    
O7    V1    S    
C10   C32   A    
C1    O8    A    
C15   C17   A    
C34   C44   A    
C81   N7    T    
C24   C26   A    
C5    C75   S    
C8    C28   A    
C37   C71   S    
C57   H17   S    
C22   C24   A    
C19   C21   A    
C38   C40   A    
O16   C68   A    
C20   C22   A    
C18   C26   A    
C9    C11   A    
C23   C25   A    
C17   C31   A    
C26   C82   S    
C75   O23   D    
C50   C52   A    
O10   V1    S    
C3    C32   S    
O8    V2    S    
O1    C3    A    
C5    C21   A    
C33   C35   A    
C74   H20   S    
C72   N4    T    
C40   C42   A    
C64   C74   S    
C54   C64   A    
C13   H5    S    
C53   C63   A    
