data_str_m9_o5_o16_f0_sra.sym.40
_audit_creation_date              2012-12-11T17:14:05-0500
_audit_creation_method            fapswitch 2.2
_symmetry_space_group_name_H-M    P1
_symmetry_Int_Tables_number       1
_space_group_crystal_system       triclinic
_cell_length_a                    18.225888
_cell_length_b                    7.093394
_cell_length_c                    13.018629
_cell_angle_alpha                 90.36779
_cell_angle_beta                  72.01422
_cell_angle_gamma                 89.894911
_cell_volume                      1600.79942646

loop_
_atom_site_label
_atom_site_type_symbol
_atom_type_description
_atom_site_fract_x
_atom_site_fract_y
_atom_site_fract_z
_atom_type_partial_charge
O1    O     O_R   0.453880 0.506200 0.150010 -0.538411
O2    O     O_R   0.546120 0.006200 0.849990 -0.537984
O3    O     O_R   0.604080 0.177770 0.007280 -0.539648
O4    O     O_R   0.395920 0.677770 0.992720 -0.539865
C1    C     C_R   0.635971 0.344409 0.001801 0.730128
C2    C     C_R   0.364028 0.844617 0.998184 0.730531
O5    O     O_R   0.458010 0.176640 0.159130 -0.541301
O6    O     O_R   0.541990 0.676640 0.840870 -0.541748
O7    O     O_R   0.399010 0.004010 0.002930 -0.535888
O8    O     O_R   0.600990 0.504010 0.997070 -0.536272
C3    C     C_R   0.443224 0.346120 0.201727 0.689614
C4    C     C_R   0.556815 0.844404 0.798210 0.689587
O9    O     O_3   0.480810 0.338440 0.948570 -0.374252
O10   O     O_3   0.519190 0.838440 0.051430 -0.374999
V1    V     V_3+5 0.503560 0.064490 0.009540 1.425082
V2    V     V_3+5 0.496440 0.564490 0.990460 1.423812
C5    C     C_R   0.583226 0.815125 0.501306 -0.162456
C6    C     C_R   0.415733 0.428737 0.496009 -0.161660
H1    H     H_    0.485944 0.808257 0.645057 0.104647
H2    H     H_    0.513047 0.425204 0.352174 0.106198
H3    H     H_    0.662398 0.801364 0.293171 0.125595
H4    H     H_    0.335996 0.468705 0.702858 0.124670
H5    H     H_    0.547537 0.795826 0.449126 0.119720
H6    H     H_    0.450917 0.464449 0.546901 0.119712
C7    C     C_R   0.592649 0.848776 0.681351 -0.027035
C8    C     C_R   0.407262 0.358878 0.318410 -0.028304
C9    C     C_R   0.953982 0.885795 0.384410 -0.170928
C10   C     C_R   0.046690 0.311667 0.617383 -0.169666
C11   C     C_R   0.922314 0.892992 0.495993 -0.124018
C12   C     C_R   0.078684 0.288274 0.506534 -0.123107
C13   C     C_R   0.842750 0.881599 0.543956 -0.161012
C14   C     C_R   0.157994 0.305136 0.457900 -0.161310
C15   C     C_R   0.792339 0.861869 0.480589 0.077842
C16   C     C_R   0.207804 0.347093 0.519778 0.077716
C17   C     C_R   0.825419 0.851394 0.366118 0.066381
C18   C     C_R   0.174357 0.373725 0.633353 0.066101
C19   C     C_R   0.710376 0.852501 0.526814 0.071544
C20   C     C_R   0.289518 0.363134 0.472942 0.071206
C21   C     C_R   0.663743 0.829147 0.457854 0.140208
C22   C     C_R   0.335510 0.408447 0.540273 0.139641
C23   C     C_R   0.697640 0.818725 0.346123 -0.207741
C24   C     C_R   0.301249 0.434376 0.651135 -0.206634
C25   C     C_R   0.777078 0.830436 0.300808 -0.196502
C26   C     C_R   0.222073 0.416718 0.697137 -0.196503
C27   C     C_R   0.672797 0.864376 0.639296 -0.214086
C28   C     C_R   0.327443 0.336880 0.361352 -0.214032
C29   C     C_R   0.547986 0.823060 0.612544 -0.177910
C30   C     C_R   0.451288 0.405674 0.385499 -0.177316
C31   C     C_R   0.906442 0.864425 0.319055 -0.070635
C32   C     C_R   0.093629 0.354736 0.681181 -0.071713
H7    H     H_    0.703897 0.882164 0.696874 0.096088
H8    H     H_    0.296825 0.302483 0.304992 0.096353
H9    H     H_    0.015923 0.897895 0.348684 0.103508
H10   H     H_    0.984999 0.295166 0.653800 0.104368
H11   H     H_    0.822837 0.888768 0.630798 0.107609
H12   H     H_    0.178196 0.284298 0.371743 0.107590
H13   H     H_    0.959720 0.909057 0.545899 0.126885
H14   H     H_    0.041755 0.255324 0.457795 0.126949
C33   C     C_1   0.216319 0.858593 0.000260 -0.187100
C34   C     C_1   0.783680 0.358914 0.999724 -0.186658
C35   C     C_1   0.283612 0.852700 0.999066 -0.188691
C36   C     C_1   0.716392 0.352460 0.000925 -0.188455
O11   O     O_R   0.899030 0.205490 0.002790 -0.535244
O12   O     O_R   0.100970 0.705490 0.997210 -0.536857
O13   O     O_R   0.042000 0.536370 0.840840 -0.541312
O14   O     O_R   0.958000 0.036370 0.159160 -0.540315
C37   C     C_R   0.057571 0.367359 0.798300 0.680772
C38   C     C_R   0.942377 0.869050 0.201764 0.681068
O15   O     O_R   0.895930 0.535070 0.992690 -0.540466
O16   O     O_R   0.104070 0.035070 0.007310 -0.538852
O17   O     O_R   0.953870 0.707520 0.150040 -0.538455
O18   O     O_R   0.046130 0.207520 0.849960 -0.537375
C39   C     C_R   0.864127 0.366865 0.998719 0.728771
C40   C     C_R   0.135877 0.866629 0.001278 0.729088
O19   O     O_3   0.019200 0.374340 0.051340 -0.373962
O20   O     O_3   0.980800 0.874340 0.948660 -0.374428
V3    V     V_3+5 0.996440 0.648350 0.990470 1.422818
V4    V     V_3+5 0.003560 0.148350 0.009530 1.427558
H15   H     H_    0.800301 0.822157 0.213677 0.125669
H16   H     H_    0.198541 0.437833 0.783560 0.126082

loop_
_geom_bond_atom_site_label_1
_geom_bond_atom_site_label_2
_ccdc_geom_bond_type
O14   C38   A    
C31   C38   S    
C9    C11   A    
O12   V3    S    
O15   V3    S    
O1    C3    A    
O2    C4    A    
C2    O7    A    
C18   C32   A    
C21   C23   A    
O5    C3    A    
C5    H5    S    
C6    H6    S    
C2    C35   S    
O20   V4    S    
H1    C29   S    
O16   V4    S    
C27   H7    S    
C25   H15   S    
C28   H8    S    
C34   C39   S    
C34   C36   T    
C37   O18   A    
C5    C21   A    
C6    C22   A    
O18   V4    S    
C10   C32   A    
O13   C37   A    
O16   C40   A    
C13   C15   A    
O15   C39   A    
C12   C14   A    
C17   C25   A    
C32   C37   S    
C7    C29   A    
C8    C30   A    
C22   C24   A    
O6    V2    S    
C23   C25   A    
C24   C26   A    
O14   V4    S    
C33   C35   T    
O13   V3    S    
C26   H16   S    
O20   V3    S    
O4    C2    A    
C10   H10   S    
O11   C39   A    
C3    C8    S    
C15   C19   A    
C14   C16   A    
O4    V2    S    
C17   C31   A    
O6    C4    A    
O1    V2    S    
O2    V1    S    
O19   V3    S    
C33   C40   S    
H2    C30   S    
H3    C23   S    
C11   H13   S    
C18   C26   A    
C19   C27   A    
C7    C27   A    
O17   V3    S    
O3    V1    S    
C16   C20   A    
C5    C29   A    
O3    C1    A    
C6    C30   A    
C9    H9    S    
C4    C7    S    
C10   C12   A    
O7    V1    S    
C1    O8    A    
C19   C21   A    
O8    V2    S    
C20   C22   A    
H4    C24   S    
C38   O17   A    
C12   H14   S    
O5    V1    S    
C15   C17   A    
C1    C36   S    
C16   C18   A    
O19   V4    S    
C20   C28   A    
C8    C28   A    
C11   C13   A    
O9    V2    S    
O12   C40   A    
O10   V1    S    
C13   H11   S    
C14   H12   S    
C9    C31   A    
O11   V4    S    
