data_str_m4_o22_o24_f0_acs.sym.100
_audit_creation_date              2012-12-11T15:08:35-0500
_audit_creation_method            fapswitch 2.2
_symmetry_space_group_name_H-M    P1
_symmetry_Int_Tables_number       1
_space_group_crystal_system       triclinic
_cell_length_a                    19.483883
_cell_length_b                    11.330151
_cell_length_c                    18.694616
_cell_angle_alpha                 90.10734
_cell_angle_beta                  90.267816
_cell_angle_gamma                 89.808626
_cell_volume                      4126.86101815

loop_
_atom_site_label
_atom_site_type_symbol
_atom_type_description
_atom_site_fract_x
_atom_site_fract_y
_atom_site_fract_z
_atom_type_partial_charge
C1    C     C_R   0.272926 0.041769 0.854836 0.529698
C2    C     C_R   0.727839 0.043493 0.146033 0.531761
C3    C     C_R   0.772926 0.541770 0.854836 0.529698
C4    C     C_R   0.227839 0.543493 0.146033 0.531761
C5    C     C_3   0.521960 0.737194 0.960741 -0.105074
C6    C     C_3   0.485148 0.712064 0.031486 -0.108776
C7    C     C_3   0.021960 0.237194 0.960741 -0.105074
C8    C     C_3   0.985147 0.212063 0.031486 -0.108777
C9    C     C_3   0.315289 0.534756 0.045019 -0.240455
C10   C     C_3   0.693085 0.511754 0.960355 -0.238451
C11   C     C_3   0.815289 0.034755 0.045018 -0.240455
C12   C     C_3   0.193084 0.011754 0.960355 -0.238452
C13   C     C_3   0.322831 0.553543 0.963514 -0.248355
C14   C     C_3   0.692414 0.517080 0.042902 -0.257603
C15   C     C_3   0.822831 0.053542 0.963514 -0.248356
C16   C     C_3   0.192414 0.017080 0.042902 -0.257603
C17   C     C_3   0.184545 0.511764 0.025382 -0.212237
C18   C     C_3   0.824129 0.530605 0.973442 -0.208436
C19   C     C_3   0.684545 0.011764 0.025382 -0.212237
C20   C     C_3   0.324129 0.030605 0.973442 -0.208437
C21   C     C_3   0.235301 0.704026 0.055476 -0.262400
C22   C     C_3   0.750501 0.703016 0.944107 -0.253641
C23   C     C_3   0.735301 0.204026 0.055476 -0.262400
C24   C     C_3   0.250501 0.203016 0.944107 -0.253641
C25   C     C_3   0.242141 0.572602 0.070128 0.050930
C26   C     C_3   0.759236 0.570949 0.930949 0.051689
C27   C     C_3   0.742141 0.072602 0.070128 0.050930
C28   C     C_3   0.259236 0.070948 0.930949 0.051689
C29   C     C_3   0.255567 0.606718 0.931638 0.045220
C30   C     C_3   0.746536 0.607911 0.069112 0.051245
C31   C     C_3   0.755566 0.106718 0.931638 0.045220
C32   C     C_3   0.246536 0.107911 0.069112 0.051245
C33   C     C_3   0.199057 0.515063 0.943859 -0.131483
C34   C     C_3   0.819511 0.560179 0.053281 -0.109496
C35   C     C_3   0.699056 0.015064 0.943859 -0.131482
C36   C     C_3   0.319511 0.060179 0.053281 -0.109496
C37   C     C_3   0.235783 0.720533 0.973884 -0.230441
C38   C     C_3   0.734520 0.721027 0.024417 -0.227855
C39   C     C_3   0.735784 0.220534 0.973885 -0.230440
C40   C     C_3   0.234520 0.221027 0.024417 -0.227856
C41   C     C_3   0.497837 0.699245 0.459703 -0.236234
C42   C     C_3   0.502671 0.699100 0.540127 -0.237702
C43   C     C_3   0.997837 0.199245 0.459703 -0.236234
C44   C     C_3   0.002671 0.199100 0.540127 -0.237702
C45   C     C_R   0.440790 0.817029 0.862088 0.541315
C46   C     C_R   0.552711 0.816982 0.137605 0.536515
C47   C     C_R   0.940790 0.317029 0.862088 0.541317
C48   C     C_R   0.052711 0.316982 0.137605 0.536516
C49   C     C_3   0.567356 0.888213 0.473545 -0.228895
C50   C     C_3   0.432565 0.887705 0.526691 -0.229037
C51   C     C_3   0.067356 0.388213 0.473545 -0.228895
C52   C     C_3   0.932565 0.387705 0.526691 -0.229037
C53   C     C_3   0.445839 0.898719 0.445547 -0.256915
C54   C     C_3   0.554164 0.898428 0.554786 -0.255439
C55   C     C_3   0.945839 0.398719 0.445547 -0.256915
C56   C     C_3   0.054164 0.398429 0.554786 -0.255439
C57   C     C_3   0.509660 0.827280 0.430569 0.062428
C58   C     C_3   0.490528 0.826971 0.569552 0.060993
C59   C     C_3   0.009660 0.327280 0.430569 0.062428
C60   C     C_3   0.990528 0.326970 0.569552 0.060993
C61   C     C_3   0.181821 0.657605 0.458563 -0.237811
C62   C     C_3   0.818017 0.656986 0.541552 -0.237422
C63   C     C_3   0.681822 0.157605 0.458563 -0.237811
C64   C     C_3   0.318018 0.156986 0.541552 -0.237422
C65   C     C_3   0.180444 0.651821 0.539028 -0.236327
C66   C     C_3   0.819454 0.651302 0.461065 -0.237320
C67   C     C_3   0.680444 0.151821 0.539028 -0.236327
C68   C     C_3   0.319454 0.151302 0.461065 -0.237320
C69   C     C_3   0.242461 0.459198 0.472681 -0.228044
C70   C     C_3   0.757717 0.458850 0.526677 -0.229021
C71   C     C_3   0.742461 0.959198 0.472681 -0.228044
C72   C     C_3   0.257717 0.958850 0.526677 -0.229021
C73   C     C_3   0.308167 0.634189 0.443553 -0.257640
C74   C     C_3   0.691749 0.633780 0.556666 -0.257426
C75   C     C_3   0.808167 0.134189 0.443553 -0.257639
C76   C     C_3   0.191749 0.133780 0.556666 -0.257426
C77   C     C_3   0.240144 0.575162 0.429518 0.065999
C78   C     C_3   0.759926 0.574550 0.570376 0.065366
C79   C     C_3   0.740144 0.075162 0.429518 0.065999
C80   C     C_3   0.259926 0.074550 0.570376 0.065366
C81   C     C_3   0.251384 0.605942 0.567841 0.064293
C82   C     C_3   0.748554 0.606331 0.432182 0.065036
C83   C     C_3   0.751384 0.105942 0.567841 0.064293
C84   C     C_3   0.248555 0.106331 0.432182 0.065036
C85   C     C_3   0.255677 0.475005 0.553473 -0.258373
C86   C     C_3   0.744188 0.475330 0.446022 -0.257143
C87   C     C_3   0.755677 0.975005 0.553473 -0.258373
C88   C     C_3   0.244188 0.975330 0.446022 -0.257143
C89   C     C_R   0.262505 0.641602 0.854778 0.541727
C90   C     C_R   0.738547 0.639785 0.146058 0.528411
C91   C     C_R   0.762505 0.141602 0.854778 0.541727
C92   C     C_R   0.238547 0.139785 0.146058 0.528411
C93   C     C_3   0.310130 0.661644 0.524363 -0.230442
C94   C     C_3   0.689943 0.662532 0.476093 -0.231380
C95   C     C_3   0.810130 0.161644 0.524363 -0.230442
C96   C     C_3   0.189943 0.162532 0.476093 -0.231380
C97   C     C_R   0.273094 0.043926 0.646103 0.538122
C98   C     C_R   0.727056 0.044520 0.353745 0.536806
C99   C     C_R   0.773094 0.543926 0.646103 0.538121
C100  C     C_R   0.227056 0.544520 0.353745 0.536806
C101  C     C_R   0.469383 0.822600 0.645882 0.546808
C102  C     C_R   0.530683 0.822850 0.354175 0.541837
C103  C     C_R   0.969383 0.322600 0.645882 0.546808
C104  C     C_R   0.030683 0.322850 0.354175 0.541837
C105  C     C_R   0.260527 0.639619 0.643915 0.543947
C106  C     C_R   0.739385 0.640229 0.356200 0.538925
C107  C     C_R   0.760527 0.139619 0.643915 0.543947
C108  C     C_R   0.239385 0.140229 0.356200 0.538925
C109  C     C_3   0.463905 0.899534 0.043738 -0.125125
C110  C     C_3   0.500507 0.925727 0.972371 -0.090548
C111  C     C_3   0.963904 0.399534 0.043738 -0.125126
C112  C     C_3   0.000506 0.425727 0.972371 -0.090548
C113  C     C_3   0.426192 0.794585 0.008635 -0.171134
C114  C     C_3   0.559576 0.842478 0.994181 -0.150011
C115  C     C_3   0.926192 0.294585 0.008634 -0.171134
C116  C     C_3   0.059576 0.342478 0.994181 -0.150011
C117  C     C_3   0.463864 0.820807 0.937994 0.046182
C118  C     C_3   0.522662 0.817873 0.064836 0.052780
C119  C     C_3   0.963864 0.320807 0.937994 0.046183
C120  C     C_3   0.022662 0.317872 0.064836 0.052780
Cr1   Cr    Cr6+3 0.229620 0.836040 0.749110 1.008369
Cr2   Cr    Cr6+3 0.770380 0.836040 0.250890 1.013299
Cr3   Cr    Cr6+3 0.729620 0.336040 0.749110 1.008370
Cr4   Cr    Cr6+3 0.270380 0.336040 0.250890 1.013299
Cr5   Cr    Cr6+3 0.387630 0.990680 0.750730 1.018487
Cr6   Cr    Cr6+3 0.612370 0.990680 0.249270 1.011820
Cr7   Cr    Cr6+3 0.887630 0.490680 0.750730 1.018487
Cr8   Cr    Cr6+3 0.112370 0.490680 0.249270 1.011820
Cr9   Cr    Cr6+3 0.386020 0.676590 0.749210 0.998176
Cr10  Cr    Cr6+3 0.613980 0.676590 0.250790 0.998740
Cr11  Cr    Cr6+3 0.886020 0.176590 0.749210 0.998176
Cr12  Cr    Cr6+3 0.113980 0.176590 0.250790 0.998740
H1    H     H_    0.371838 0.776372 0.017977 0.097128
H2    H     H_    0.611069 0.847499 0.972477 0.101789
H3    H     H_    0.871838 0.276371 0.017976 0.097127
H4    H     H_    0.111069 0.347499 0.972477 0.101789
H5    H     H_    0.185914 0.737834 0.077209 0.138318
H6    H     H_    0.797961 0.751560 0.929480 0.134863
H7    H     H_    0.685914 0.237834 0.077209 0.138318
H8    H     H_    0.297961 0.251560 0.929480 0.134863
H9    H     H_    0.277036 0.754332 0.082127 0.104318
H10   H     H_    0.707508 0.736671 0.910502 0.103251
H11   H     H_    0.777036 0.254331 0.082128 0.104318
H12   H     H_    0.207508 0.236671 0.910502 0.103251
H13   H     H_    0.270216 0.791810 0.958876 0.104904
H14   H     H_    0.679732 0.741033 0.030842 0.100524
H15   H     H_    0.770218 0.291810 0.958876 0.104903
H16   H     H_    0.179733 0.241033 0.030842 0.100524
H17   H     H_    0.182393 0.743474 0.958229 0.146748
H18   H     H_    0.765434 0.794069 0.045358 0.141083
H19   H     H_    0.682394 0.243476 0.958230 0.146748
H20   H     H_    0.265434 0.294069 0.045358 0.141083
H21   H     H_    0.634237 0.055382 0.036266 0.150218
H22   H     H_    0.371305 0.070758 0.950527 0.151030
H23   H     H_    0.134237 0.555381 0.036265 0.150217
H24   H     H_    0.871305 0.570759 0.950527 0.151030
H25   H     H_    0.533168 0.630158 0.440137 0.137898
H26   H     H_    0.467332 0.630368 0.559463 0.137447
H27   H     H_    0.033168 0.130158 0.440137 0.137898
H28   H     H_    0.967332 0.130368 0.559463 0.137447
H29   H     H_    0.446600 0.669152 0.442427 0.117140
H30   H     H_    0.553895 0.668711 0.557388 0.117408
H31   H     H_    0.946600 0.169152 0.442427 0.117140
H32   H     H_    0.053895 0.168711 0.557388 0.117408
H33   H     H_    0.608563 0.828634 0.465941 0.110010
H34   H     H_    0.391805 0.827349 0.533696 0.110098
H35   H     H_    0.108563 0.328634 0.465941 0.110010
H36   H     H_    0.891805 0.327349 0.533696 0.110098
H37   H     H_    0.598665 0.865058 0.586164 0.104182
H38   H     H_    0.401482 0.865764 0.413887 0.101892
H39   H     H_    0.098665 0.365058 0.586164 0.104182
H40   H     H_    0.901482 0.365764 0.413887 0.101892
H41   H     H_    0.444956 0.962003 0.084180 0.140686
H42   H     H_    0.501576 0.017298 0.952121 0.154714
H43   H     H_    0.944955 0.462002 0.084180 0.140685
H44   H     H_    0.001576 0.517298 0.952121 0.154713
H45   H     H_    0.455193 0.992174 0.430706 0.121031
H46   H     H_    0.544684 0.991826 0.570162 0.122870
H47   H     H_    0.955193 0.492174 0.430706 0.121031
H48   H     H_    0.044684 0.491826 0.570162 0.122870
H49   H     H_    0.420637 0.974868 0.549345 0.131499
H50   H     H_    0.578625 0.975759 0.451332 0.130624
H51   H     H_    0.920637 0.474868 0.549345 0.131499
H52   H     H_    0.078625 0.475759 0.451332 0.130624
H53   H     H_    0.129350 0.638240 0.439445 0.137586
H54   H     H_    0.870567 0.637943 0.560681 0.137503
H55   H     H_    0.629351 0.138239 0.439445 0.137586
H56   H     H_    0.370567 0.137943 0.560681 0.137503
H57   H     H_    0.191734 0.748927 0.440857 0.116347
H58   H     H_    0.807690 0.748262 0.559465 0.116849
H59   H     H_    0.691734 0.248927 0.440857 0.116347
H60   H     H_    0.307690 0.248261 0.559465 0.116849
H61   H     H_    0.163990 0.739574 0.558286 0.137084
H62   H     H_    0.835941 0.738823 0.442012 0.136691
H63   H     H_    0.663991 0.239574 0.558286 0.137084
H64   H     H_    0.335941 0.238823 0.442012 0.136691
H65   H     H_    0.139773 0.591190 0.556809 0.118735
H66   H     H_    0.860028 0.590210 0.443106 0.117902
H67   H     H_    0.639773 0.091190 0.556809 0.118735
H68   H     H_    0.360028 0.090210 0.443106 0.117902
H69   H     H_    0.691695 0.928195 0.466110 0.110510
H70   H     H_    0.308546 0.927617 0.532548 0.110512
H71   H     H_    0.191695 0.428195 0.466110 0.110510
H72   H     H_    0.808546 0.427617 0.532548 0.110512
H73   H     H_    0.717388 0.925824 0.585515 0.102851
H74   H     H_    0.282302 0.925833 0.413572 0.100861
H75   H     H_    0.217388 0.425824 0.585515 0.102851
H76   H     H_    0.782302 0.425833 0.413572 0.100861
H77   H     H_    0.350414 0.572765 0.428814 0.121574
H78   H     H_    0.649738 0.572070 0.570805 0.122049
H79   H     H_    0.850414 0.072765 0.428814 0.121574
H80   H     H_    0.149738 0.072070 0.570805 0.122049
H81   H     H_    0.313337 0.715966 0.411343 0.100709
H82   H     H_    0.686213 0.715019 0.589560 0.101820
H83   H     H_    0.813337 0.215966 0.411343 0.100709
H84   H     H_    0.186213 0.215019 0.589560 0.101820
H85   H     H_    0.546584 0.668838 0.926857 0.128629
H86   H     H_    0.479544 0.622903 0.055219 0.129654
H87   H     H_    0.046585 0.168838 0.926857 0.128629
H88   H     H_    0.979543 0.122903 0.055219 0.129654
H89   H     H_    0.299684 0.752945 0.530083 0.110608
H90   H     H_    0.700808 0.753736 0.471620 0.111045
H91   H     H_    0.799684 0.252945 0.530083 0.110608
H92   H     H_    0.200808 0.253736 0.471620 0.111045
H93   H     H_    0.360321 0.636864 0.546813 0.131255
H94   H     H_    0.639762 0.639223 0.453338 0.131878
H95   H     H_    0.860321 0.136863 0.546813 0.131255
H96   H     H_    0.139762 0.139223 0.453338 0.131878
H97   H     H_    0.280268 0.397341 0.450241 0.133095
H98   H     H_    0.720192 0.396958 0.549027 0.132162
H99   H     H_    0.780268 0.897341 0.450241 0.133095
H100  H     H_    0.220192 0.896958 0.549027 0.132162
H101  H     H_    0.307771 0.442430 0.568012 0.120754
H102  H     H_    0.692025 0.443468 0.431567 0.121354
H103  H     H_    0.807771 0.942430 0.568012 0.120754
H104  H     H_    0.192025 0.943468 0.431567 0.121354
H105  H     H_    0.327826 0.442480 0.058568 0.151074
H106  H     H_    0.685998 0.422417 0.940787 0.139038
H107  H     H_    0.827826 0.942479 0.058569 0.151074
H108  H     H_    0.185997 0.922417 0.940787 0.139038
H109  H     H_    0.354312 0.588040 0.073994 0.121502
H110  H     H_    0.647358 0.559426 0.939336 0.115091
H111  H     H_    0.854311 0.088039 0.073993 0.121502
H112  H     H_    0.147358 0.059426 0.939336 0.115091
H113  H     H_    0.367270 0.610522 0.951994 0.143957
H114  H     H_    0.639739 0.541694 0.060368 0.146999
H115  H     H_    0.867270 0.110519 0.951994 0.143958
H116  H     H_    0.139739 0.041694 0.060368 0.146999
H117  H     H_    0.334570 0.467524 0.937419 0.121176
H118  H     H_    0.704404 0.430279 0.066169 0.112936
H119  H     H_    0.834569 0.967522 0.937419 0.121176
H120  H     H_    0.204404 0.930279 0.066169 0.112936
H121  H     H_    0.679237 0.922750 0.045868 0.084122
H122  H     H_    0.331949 0.936530 0.965769 0.082727
H123  H     H_    0.179238 0.422750 0.045868 0.084122
H124  H     H_    0.831949 0.436531 0.965768 0.082727
H125  H     H_    0.718158 0.928371 0.926099 0.094037
H126  H     H_    0.327933 0.978865 0.085376 0.083303
H127  H     H_    0.218160 0.428370 0.926099 0.094038
H128  H     H_    0.827933 0.478865 0.085376 0.083303
O1    O     O_R   0.214130 0.708570 0.829890 -0.502873
O2    O     O_R   0.785870 0.708570 0.170110 -0.502492
O3    O     O_R   0.714130 0.208570 0.829890 -0.502873
O4    O     O_R   0.285870 0.208570 0.170110 -0.502492
O5    O     O_R   0.446360 0.919990 0.675230 -0.503375
O6    O     O_R   0.553640 0.919990 0.324770 -0.507828
O7    O     O_R   0.946360 0.419990 0.675230 -0.503375
O8    O     O_R   0.053640 0.419990 0.324770 -0.507828
O9    O     O_R   0.457170 0.717300 0.668380 -0.530778
O10   O     O_R   0.542830 0.717300 0.331620 -0.530424
O11   O     O_R   0.957170 0.217300 0.668380 -0.530778
O12   O     O_R   0.042830 0.217300 0.331620 -0.530424
O13   O     O_R   0.320870 0.624890 0.673130 -0.512331
O14   O     O_R   0.679130 0.624890 0.326870 -0.512544
O15   O     O_R   0.820870 0.124890 0.673130 -0.512331
O16   O     O_R   0.179130 0.124890 0.326870 -0.512544
O17   O     O_3   0.334430 0.834430 0.749680 -0.296023
O18   O     O_3   0.665570 0.834430 0.250320 -0.287194
O19   O     O_3   0.834430 0.334430 0.749680 -0.296024
O20   O     O_3   0.165570 0.334430 0.250320 -0.287194
O21   O     O_R   0.236050 0.959150 0.825270 -0.515467
O22   O     O_R   0.763950 0.959150 0.174730 -0.510367
O23   O     O_R   0.736050 0.459150 0.825270 -0.515467
O24   O     O_R   0.263950 0.459150 0.174730 -0.510367
O25   O     O_R   0.332100 0.076650 0.832310 -0.532305
O26   O     O_R   0.667900 0.076650 0.167690 -0.527268
O27   O     O_R   0.832100 0.576650 0.832310 -0.532305
O28   O     O_R   0.167900 0.576650 0.167690 -0.527267
O29   O     O_R   0.446500 0.918620 0.826240 -0.481841
O30   O     O_R   0.553500 0.918620 0.173760 -0.498191
O31   O     O_R   0.946500 0.418620 0.826240 -0.481841
O32   O     O_R   0.053500 0.418620 0.173760 -0.498191
O33   O     O_R   0.457310 0.715830 0.831280 -0.521363
O34   O     O_R   0.542690 0.715830 0.168720 -0.521452
O35   O     O_R   0.957310 0.215830 0.831280 -0.521364
O36   O     O_R   0.042690 0.215830 0.168720 -0.521452
O37   O     O_R   0.321000 0.623520 0.824130 -0.525562
O38   O     O_R   0.679000 0.623520 0.175870 -0.521559
O39   O     O_R   0.821000 0.123520 0.824130 -0.525562
O40   O     O_R   0.179000 0.123520 0.175870 -0.521559
O41   O     O_R   0.213990 0.710040 0.667000 -0.527765
O42   O     O_R   0.786010 0.710040 0.333000 -0.532373
O43   O     O_R   0.713990 0.210040 0.667000 -0.527765
O44   O     O_R   0.286010 0.210040 0.333000 -0.532373
O45   O     O_R   0.235920 0.960520 0.674260 -0.513104
O46   O     O_R   0.764080 0.960520 0.325740 -0.513522
O47   O     O_R   0.735920 0.460520 0.674260 -0.513104
O48   O     O_R   0.264080 0.460520 0.325740 -0.513522
O49   O     O_R   0.331960 0.078120 0.669410 -0.533182
O50   O     O_R   0.668040 0.078120 0.330590 -0.533977
O51   O     O_R   0.831960 0.578120 0.669410 -0.533182
O52   O     O_R   0.168040 0.578120 0.330590 -0.533977
C121  C     C_1   0.137131 0.539617 0.900179 0.174572
N1    N     N_1   0.090433 0.559964 0.863712 -0.280807
C122  C     C_1   0.874616 0.646135 0.071128 0.193992
N2    N     N_1   0.917609 0.712943 0.084669 -0.313071
C123  C     C_1   0.637130 0.039621 0.900180 0.174574
N3    N     N_1   0.590433 0.059970 0.863714 -0.280809
C124  C     C_1   0.374616 0.146135 0.071127 0.193991
N4    N     N_1   0.417609 0.212943 0.084669 -0.313071

loop_
_geom_bond_atom_site_label_1
_geom_bond_atom_site_label_2
_ccdc_geom_bond_type
C82   C94   S    
C55   C59   S    
C35   H125  S    
C83   C87   S    
C73   C93   S    
C47   O31   A    
C42   C58   S    
C29   C89   S    
C16   H120  S    
C75   C95   S    
C48   C120  S    
C24   H8    S    
C57   C102  S    
Cr6   O18   S    
Cr7   O7    S    
C85   H101  S    
C59   C104  S    
C63   H55   S    
Cr1   O17   S    
C34   C122  S    
Cr10  O10   S    
C109  H41   S    
Cr4   O4    S    
Cr12  O16   S    
C29   C33   S    
C87   H103  S    
C30   C38   S    
C77   C100  S    
C9    C13   S    
C87   H73   S    
C11   C15   S    
C5    H85   S    
C12   C16   S    
C98   O50   A    
C99   O47   A    
C103  O7    A    
C60   C103  S    
C107  O15   A    
Cr4   O24   S    
C83   C107  S    
C113  H1    S    
C74   H82   S    
C61   H57   S    
C54   H37   S    
C23   H11   S    
C66   H62   S    
C109  C118  S    
C16   H116  S    
C70   H72   S    
Cr5   O25   S    
C50   C53   S    
C89   O37   A    
C7    C119  S    
Cr8   O28   S    
C62   H58   S    
C62   C66   S    
Cr2   O2    S    
C20   C28   S    
C18   H124  S    
Cr12  O36   S    
C43   C44   S    
C66   C82   S    
Cr9   O33   S    
C58   C101  S    
C105  O41   A    
C92   O4    A    
C107  O43   A    
C53   H38   S    
C116  H4    S    
C108  O44   A    
C56   H39   S    
C19   H21   S    
C89   O1    A    
Cr5   O49   S    
C17   H23   S    
C55   H40   S    
C91   O3    A    
Cr1   O45   S    
Cr5   O5    S    
Cr2   O42   S    
C3    C26   S    
C84   C88   S    
C31   C91   S    
C53   H45   S    
Cr12  O12   S    
C36   C124  S    
C13   H117  S    
Cr10  O34   S    
C17   C25   S    
C19   C35   S    
C76   C96   S    
C1    O21   A    
C5    C6    S    
C75   H83   S    
Cr3   O19   S    
C95   H95   S    
C21   H9    S    
C61   C65   S    
C12   H108  S    
C78   C99   S    
C45   O29   A    
C75   C79   S    
Cr5   O29   S    
C22   C38   S    
C67   C83   S    
C80   C97   S    
C11   H111  S    
C69   C77   S    
C111  C112  S    
C9    H109  S    
C71   C79   S    
C4    C25   S    
Cr4   O20   S    
C7    C8    S    
C32   C92   S    
Cr10  O38   S    
Cr4   O44   S    
C96   H96   S    
C73   H77   S    
C24   H12   S    
C43   H27   S    
C100  O52   A    
C39   H19   S    
C49   C57   S    
C40   H20   S    
Cr11  O11   S    
Cr9   O37   S    
C38   H14   S    
C33   C121  S    
C52   C60   S    
C19   H121  S    
C61   C77   S    
C12   H112  S    
C11   C27   S    
C93   H93   S    
C36   H126  S    
C47   O35   A    
C110  C114  S    
C48   O36   A    
C43   C59   S    
C62   H54   S    
C76   H80   S    
C10   H106  S    
C6    H86   S    
C88   H74   S    
C22   H10   S    
Cr1   O21   S    
Cr2   O18   S    
C110  H42   S    
Cr12  O20   S    
C81   C105  S    
C30   C34   S    
C10   C14   S    
C101  O9    A    
C95   H91   S    
C116  C120  S    
C103  O11   A    
C7    C116  S    
C69   H97   S    
C33   H127  S    
C61   H53   S    
C114  H2    S    
C34   H128  S    
C66   H66   S    
C64   H56   S    
C113  C117  S    
C112  H44   S    
C115  C119  S    
Cr6   O26   S    
C9    H105  S    
Cr4   O48   S    
C112  C116  S    
C69   C85   S    
C85   H75   S    
C72   H70   S    
C56   H48   S    
C45   C117  S    
C21   C25   S    
C73   C77   S    
Cr12  O40   S    
C55   H47   S    
C62   C78   S    
C76   C80   S    
C32   C36   S    
C15   C31   S    
C16   C32   S    
C97   O45   A    
C105  O13   A    
C106  O42   A    
C72   C80   S    
C115  H3    S    
C4    O24   A    
C82   C106  S    
C90   O2    A    
Cr6   O50   S    
Cr8   O32   S    
C94   H90   S    
Cr6   O6    S    
C46   O34   A    
Cr7   O19   S    
Cr8   O20   S    
C81   C85   S    
C13   H113  S    
C41   H29   S    
C41   C42   S    
C74   C94   S    
Cr9   O13   S    
C18   C26   S    
C30   C90   S    
Cr11  O39   S    
C1    O25   A    
C9    C25   S    
C2    O22   A    
C3    O27   A    
C75   H79   S    
C86   H102  S    
C12   C28   S    
C13   C29   S    
C67   H67   S    
C98   O46   A    
C46   C118  S    
C22   C26   S    
C64   H60   S    
Cr6   O30   S    
C51   H35   S    
C106  O14   A    
C50   H34   S    
C1    C28   S    
C2    C27   S    
Cr10  O14   S    
C72   H100  S    
Cr11  O19   S    
C52   C55   S    
C122  N2    T    
C64   C80   S    
C73   H81   S    
C42   H26   S    
C17   C33   S    
C110  C117  S    
C38   H18   S    
C65   H61   S    
C40   H16   S    
C68   C84   S    
C24   C28   S    
C51   H52   S    
C86   H76   S    
C53   C57   S    
C82   C86   S    
C56   C60   S    
C50   C58   S    
C104  O12   A    
C49   H33   S    
C48   O32   A    
Cr7   O27   S    
C76   H84   S    
C65   C81   S    
C91   O39   A    
C42   H30   S    
Cr8   O8    S    
C68   H64   S    
C20   H122  S    
Cr2   O22   S    
C41   H25   S    
C92   O40   A    
C44   H28   S    
C31   C35   S    
C64   C68   S    
C101  O5    A    
C102  O10   A    
C37   H17   S    
C108  O16   A    
C112  C119  S    
C14   H118  S    
C22   H6    S    
C41   C57   S    
C109  C110  S    
C121  N1    T    
Cr5   O17   S    
C44   C60   S    
C63   H59   S    
C84   C108  S    
C94   H94   S    
C124  N4    T    
C20   C36   S    
C54   H46   S    
C21   C37   S    
C74   C78   S    
C29   C37   S    
C44   H32   S    
C43   H31   S    
C97   O49   A    
C5    C114  S    
C70   C78   S    
C79   C98   S    
C99   O51   A    
C10   H110  S    
C52   H51   S    
C35   C123  S    
C63   C79   S    
C4    O28   A    
C20   H22   S    
C74   H78   S    
C111  H43   S    
C23   H7    S    
C46   O30   A    
C11   H107  S    
C49   C54   S    
Cr3   O47   S    
C51   C56   S    
C84   C96   S    
C8    C115  S    
Cr1   O1    S    
Cr3   O3    S    
C96   H92   S    
Cr9   O17   S    
C23   C27   S    
C19   C27   S    
C109  C113  S    
C2    O26   A    
C7    H87   S    
C10   C26   S    
C47   C119  S    
C14   C30   S    
C67   H63   S    
C72   C88   S    
C88   H104  S    
C63   C67   S    
Cr7   O31   S    
Cr1   O41   S    
C21   H5    S    
C5    C117  S    
C111  C120  S    
Cr10  O18   S    
Cr3   O43   S    
C70   H98   S    
C6    C113  S    
Cr11  O15   S    
C8    H88   S    
C81   C93   S    
C83   C95   S    
Cr11  O35   S    
C18   C34   S    
C114  C118  S    
C65   H65   S    
C69   H71   S    
C71   C87   S    
C50   H49   S    
C51   C59   S    
C70   C86   S    
C8    C120  S    
Cr2   O46   S    
C54   C58   S    
C71   H69   S    
C17   H123  S    
C45   O33   A    
C104  O8    A    
C18   H24   S    
C15   H115  S    
C111  C115  S    
Cr7   O51   S    
Cr8   O52   S    
C68   H68   S    
C71   H99   S    
Cr3   O23   S    
C52   H36   S    
C90   O38   A    
C15   H119  S    
C23   C39   S    
C3    O23   A    
C24   C40   S    
C31   C39   S    
C32   C40   S    
C123  N3    T    
Cr9   O9    S    
C49   H50   S    
C100  O48   A    
C102  O6    A    
C39   H15   S    
C93   H89   S    
C37   H13   S    
C6    C118  S    
C14   H114  S    
