data_str_m3_o4_o24_f0_pcu.sym.76
_audit_creation_date              2012-12-10T20:36:41-0500
_audit_creation_method            fapswitch 2.2
_symmetry_space_group_name_H-M    P1
_symmetry_Int_Tables_number       1
_space_group_crystal_system       triclinic
_cell_length_a                    10.510374
_cell_length_b                    10.68395
_cell_length_c                    9.865788
_cell_angle_alpha                 89.974388
_cell_angle_beta                  89.652344
_cell_angle_gamma                 90.461005
_cell_volume                      1107.79573736

loop_
_atom_site_label
_atom_site_type_symbol
_atom_type_description
_atom_site_fract_x
_atom_site_fract_y
_atom_site_fract_z
_atom_type_partial_charge
C1    C     C_R   0.497522 0.260005 0.499958 0.882069
C2    C     C_R   0.473406 0.936044 0.621980 0.126246
C3    C     C_3   0.557093 0.929446 0.743761 -0.490174
C4    C     C_R   0.257324 0.498454 0.500516 0.867369
C5    C     C_3   0.557729 0.071326 0.743561 -0.474907
C6    C     C_R   0.451099 0.400375 0.071525 0.217130
C7    C     C_R   0.559229 0.592548 0.071548 -0.143450
C8    C     C_R   0.559411 0.592442 0.927568 -0.137922
C9    C     C_R   0.450914 0.400478 0.929064 0.222932
C10   C     C_3   0.317452 0.352443 0.924303 -0.532647
C11   C     C_3   0.317864 0.351943 0.078330 -0.512439
C12   C     C_3   0.959554 0.483949 0.371402 -0.189580
C13   C     C_R   0.497167 0.739989 0.499914 0.876397
C14   C     C_R   0.742613 0.501424 0.499537 0.869193
C15   C     C_3   0.039426 0.515402 0.628515 -0.161258
C16   C     C_3   0.954129 0.406460 0.578933 -0.210281
C17   C     C_3   0.877387 0.501438 0.498511 0.025886
C18   C     C_3   0.959490 0.610493 0.548304 -0.168384
C19   C     C_3   0.044702 0.592988 0.421672 -0.185116
C20   C     C_R   0.082534 0.262829 0.407361 0.114351
C21   C     C_R   0.133634 0.179654 0.502479 -0.180602
C22   C     C_R   0.163110 0.057128 0.464750 -0.114881
C23   C     C_3   0.038957 0.389946 0.452663 0.032984
C24   C     C_R   0.145318 0.017882 0.331088 -0.104959
C25   C     C_R   0.097219 0.100973 0.235140 -0.158511
C26   C     C_R   0.065041 0.222841 0.273132 -0.149449
C27   C     C_3   0.122343 0.497710 0.501803 -0.012354
C28   C     C_R   0.473916 0.063747 0.621913 0.112540
C29   C     C_R   0.481145 0.128351 0.499585 -0.093562
C30   C     C_R   0.466231 0.064375 0.376537 -0.199660
C31   C     C_R   0.465259 0.935248 0.376632 -0.249309
C32   C     C_R   0.479998 0.871399 0.499663 -0.105872
H1    H     H_    0.912583 0.330510 0.642565 0.134057
H2    H     H_    0.313022 0.256258 0.122315 0.205785
H3    H     H_    0.075245 0.528141 0.733261 0.139487
H4    H     H_    0.922033 0.700650 0.586956 0.125650
H5    H     H_    0.085964 0.669121 0.358132 0.133131
H6    H     H_    0.922235 0.473146 0.267008 0.138759
H7    H     H_    0.462221 0.113034 0.280318 0.167767
H8    H     H_    0.460908 0.886561 0.280448 0.169187
H9    H     H_    0.506663 0.888523 0.832904 0.198576
H10   H     H_    0.147751 0.208773 0.606505 0.121824
H11   H     H_    0.200122 0.992640 0.539060 0.130464
H12   H     H_    0.651786 0.888425 0.720989 0.197050
H13   H     H_    0.169134 0.923235 0.301872 0.119972
H14   H     H_    0.083835 0.070652 0.131506 0.127869
H15   H     H_    0.026142 0.285159 0.197835 0.120664
H16   H     H_    0.507889 0.112158 0.832646 0.197716
H17   H     H_    0.652748 0.112995 0.720468 0.201850
H18   H     H_    0.605051 0.668465 0.125459 0.146721
H19   H     H_    0.605718 0.668023 0.873003 0.144714
H20   H     H_    0.250494 0.421407 0.880615 0.214834
H21   H     H_    0.311478 0.257107 0.879614 0.194528
H22   H     H_    0.250753 0.420211 0.123923 0.221041
N1    N     N_R   0.499140 0.499140 0.142800 -0.106027
N2    N     N_R   0.499140 0.499180 0.857150 -0.104831
O1    O     O_R   0.500020 0.316790 0.614690 -0.619257
O2    O     O_R   0.500000 0.316760 0.385350 -0.621807
O3    O     O_R   0.313960 0.499990 0.614650 -0.628057
O4    O     O_R   0.313940 0.499950 0.385310 -0.620840
O5    O     O_R   0.500000 0.683240 0.614650 -0.621031
O6    O     O_R   0.499980 0.683210 0.385310 -0.630212
O7    O     O_R   0.686060 0.500050 0.614690 -0.622027
O8    O     O_R   0.686040 0.500010 0.385350 -0.623847
Zn1   Zn    Zn3+2 0.500010 0.500020 0.653130 0.936106
Zn2   Zn    Zn3+2 0.499990 0.499980 0.346870 0.938405

loop_
_geom_bond_atom_site_label_1
_geom_bond_atom_site_label_2
_ccdc_geom_bond_type
C12   C17   S    
C15   C16   S    
C15   C18   S    
O7    Zn1   S    
C29   C30   A    
C23   C27   S    
C16   H1    S    
C5    C28   S    
C19   C27   S    
C9    C10   S    
C13   C32   S    
C15   C27   S    
C22   H11   S    
C12   C23   S    
C20   C23   S    
C7    N1    A    
C6    N1    A    
C14   O8    A    
C4    O4    A    
C6    C9    A    
C1    C29   S    
C17   C18   S    
C25   C26   A    
C10   H20   S    
C7    C8    A    
C9    N2    A    
C21   C22   A    
O3    Zn1   S    
C14   C17   S    
C8    N2    A    
C16   C17   S    
C11   H22   S    
C20   C26   A    
C26   H15   S    
C24   H13   S    
C12   C19   S    
C15   H3    S    
C28   C29   A    
C30   H7    S    
C2    C3    S    
C16   C23   S    
C1    O1    A    
C12   H6    S    
C30   C31   A    
C5    H16   S    
C22   C24   A    
C3    H12   S    
C5    H17   S    
C10   C11   S    
C14   O7    A    
O4    Zn2   S    
N2    Zn1   S    
O5    Zn1   S    
C4    C27   S    
C13   O5    A    
C24   C25   A    
C4    O3    A    
C2    C32   A    
C18   C19   S    
C8    H19   S    
C6    C11   S    
C10   H21   S    
O6    Zn2   S    
C3    H9    S    
C2    C28   A    
C21   H10   S    
C19   H5    S    
C31   H8    S    
C20   C21   A    
C1    O2    A    
C18   H4    S    
C25   H14   S    
O2    Zn2   S    
C11   H2    S    
C13   O6    A    
C31   C32   A    
C7    H18   S    
O1    Zn1   S    
N1    Zn2   S    
C3    C5    S    
O8    Zn2   S    
