data_str_m2_o10_o28_f0_pcu.sym.131
_audit_creation_date              2012-12-10T16:50:08-0500
_audit_creation_method            fapswitch 2.2
_symmetry_space_group_name_H-M    P1
_symmetry_Int_Tables_number       1
_space_group_crystal_system       triclinic
_cell_length_a                    23.511142
_cell_length_b                    8.684616
_cell_length_c                    7.435507
_cell_angle_alpha                 102.794663
_cell_angle_beta                  94.27183
_cell_angle_gamma                 92.383733
_cell_volume                      1473.77396881

loop_
_atom_site_label
_atom_site_type_symbol
_atom_type_description
_atom_site_fract_x
_atom_site_fract_y
_atom_site_fract_z
_atom_type_partial_charge
C1    C     C_R   0.498283 0.199728 0.453362 0.891850
C2    C     C_R   0.501717 0.800272 0.546638 0.891989
C3    C     C_R   0.234212 0.489303 0.346870 -0.102597
C4    C     C_R   0.765281 0.502148 0.654303 -0.102083
C5    C     C_R   0.293339 0.490457 0.343278 -0.209974
C6    C     C_R   0.706188 0.502765 0.656819 -0.209412
C7    C     C_R   0.328536 0.499183 0.507058 -0.036255
C8    C     C_R   0.671457 0.499376 0.493497 -0.036211
C9    C     C_R   0.303472 0.506810 0.674440 -0.215528
C10   C     C_R   0.696993 0.495483 0.327596 -0.216073
C11   C     C_R   0.244231 0.505420 0.677585 -0.101222
C12   C     C_R   0.756288 0.495358 0.325596 -0.100790
C13   C     C_R   0.209469 0.496499 0.513778 0.368625
C14   C     C_R   0.790550 0.498730 0.489038 0.365556
C15   C     C_2   0.497457 0.031974 0.426956 -0.364437
C16   C     C_2   0.502543 0.968026 0.573043 -0.364452
C17   C     C_R   0.390985 0.499693 0.502330 0.798784
C18   C     C_R   0.609011 0.500075 0.497698 0.798750
C19   C     C_R   0.883937 0.628907 0.581217 0.530108
C20   C     C_R   0.116309 0.362575 0.429645 0.537954
C21   C     C_R   0.875495 0.363762 0.400632 0.523577
C22   C     C_R   0.124340 0.629808 0.602828 0.519683
C23   C     C_R   0.935805 0.357290 0.402941 -0.039357
C24   C     C_R   0.064198 0.632494 0.609475 -0.034000
C25   C     C_R   0.969824 0.493913 0.501511 -0.047396
C26   C     C_R   0.030228 0.496133 0.510768 -0.051017
C27   C     C_R   0.943525 0.628973 0.591584 -0.034441
C28   C     C_R   0.056663 0.361052 0.421882 -0.036039
C29   C     C_R   0.963763 0.221462 0.313673 0.133949
C30   C     C_R   0.036500 0.764451 0.708683 0.143496
C31   C     C_R   0.023503 0.226422 0.326613 -0.205934
C32   C     C_R   0.976773 0.760931 0.694239 -0.225759
Cu1   Cu    Cu3+1 0.506340 0.517380 0.684380 0.955530
Cu2   Cu    Cu3+1 0.493660 0.482620 0.315620 0.955578
H1    H     H_    0.044424 0.122661 0.260980 0.182645
H2    H     H_    0.955865 0.862078 0.767533 0.177058
H3    H     H_    0.207524 0.483278 0.220026 0.133929
H4    H     H_    0.791566 0.503975 0.780832 0.136280
H5    H     H_    0.311399 0.484812 0.212314 0.157461
H6    H     H_    0.687783 0.505342 0.786649 0.157912
H7    H     H_    0.329529 0.513386 0.802632 0.156538
H8    H     H_    0.671270 0.493096 0.199852 0.155853
H9    H     H_    0.225266 0.510926 0.807055 0.131168
H10   H     H_    0.775658 0.492945 0.197404 0.134362
H11   H     H_    0.492660 0.960713 0.286007 0.180360
H12   H     H_    0.507340 0.039288 0.713993 0.180393
H13   H     H_    0.454982 0.379278 0.948734 0.225040
H14   H     H_    0.545018 0.620723 0.051266 0.225021
N1    N     N_R   0.851498 0.497829 0.488012 -0.464165
N2    N     N_R   0.148554 0.495867 0.516724 -0.464731
N3    N     N_2   0.484110 0.456420 0.038520 -0.218109
N4    N     N_2   0.515890 0.543580 0.961480 -0.218095
O1    O     O_R   0.504120 0.286130 0.619770 -0.583141
O2    O     O_R   0.495880 0.713870 0.380230 -0.583109
O3    O     O_R   0.493410 0.256770 0.308360 -0.582790
O4    O     O_R   0.506590 0.743230 0.691640 -0.582738
O5    O     O_R   0.423230 0.514630 0.655730 -0.591492
O6    O     O_R   0.576770 0.485370 0.344270 -0.591180
O7    O     O_R   0.412530 0.485280 0.344320 -0.584679
O8    O     O_R   0.587470 0.514720 0.655680 -0.584766
O9    O     O_2   0.858317 0.759147 0.663933 -0.550628
O10   O     O_2   0.142167 0.231836 0.350249 -0.559195
O11   O     O_2   0.840540 0.237980 0.315349 -0.547280
O12   O     O_2   0.158788 0.759726 0.676383 -0.542089
C33   C     C_3   0.933449 0.067526 0.203860 -0.358574
C34   C     C_3   0.915845 0.961195 0.331196 -0.690694
H15   H     H_    0.954568 0.925487 0.402766 0.225806
H16   H     H_    0.888649 0.022459 0.437136 0.288483
H17   H     H_    0.891770 0.852885 0.248099 0.239355
H18   H     H_    0.897068 0.088152 0.110358 0.253163
H19   H     H_    0.962323 0.000115 0.107677 0.168962
C35   C     C_3   0.067514 0.907152 0.840704 -0.349073
C36   C     C_3   0.093086 0.862800 0.016407 -0.736622
H20   H     H_    0.058318 0.831977 0.097919 0.223467
H21   H     H_    0.120192 0.760403 0.984611 0.264837
H22   H     H_    0.119861 0.964566 0.102097 0.281100
H23   H     H_    0.100018 0.964093 0.772167 0.256095
H24   H     H_    0.037788 0.001993 0.884613 0.165407

loop_
_geom_bond_atom_site_label_1
_geom_bond_atom_site_label_2
_ccdc_geom_bond_type
C34   H16   S    
C10   H8    S    
C36   H20   S    
C21   N1    A    
Cu1   N4    S    
Cu2   N3    S    
C23   C29   A    
C24   C26   A    
C14   N1    S    
C33   H18   S    
C1    O1    A    
C20   N2    A    
C18   O6    A    
H13   N3    S    
C7    C17   S    
C35   H24   S    
C11   H9    S    
C1    C15   S    
C2    C16   S    
C3    C13   A    
C22   N2    A    
Cu1   O4    S    
C34   H15   S    
Cu2   O3    S    
C4    C14   A    
C36   H21   S    
Cu1   O1    S    
N3    N4    D    
C6    H6    S    
C4    C6    A    
C2    O2    A    
C16   H12   S    
C5    C7    A    
C6    C8    A    
C20   C28   A    
C25   C26   A    
C33   H19   S    
C8    C18   S    
C35   H23   S    
C19   N1    A    
Cu1   Cu2   S    
C9    C11   A    
C10   C12   A    
C17   O7    A    
C29   C33   S    
C18   O8    A    
C4    H4    S    
Cu2   O2    S    
Cu1   O8    S    
C21   C23   A    
Cu2   O7    S    
C36   H22   S    
C31   H1    S    
C15   H11   S    
C32   H2    S    
C19   C27   A    
C7    C9    A    
Cu1   O5    S    
C27   C32   A    
C26   C28   A    
C28   C31   A    
C12   C14   A    
C35   C36   S    
C3    C5    A    
C30   C35   S    
C25   C27   A    
C9    H7    S    
C5    H5    S    
C1    O3    A    
C29   C31   A    
C2    O4    A    
C30   C32   A    
C11   C13   A    
C19   O9    S    
C22   C24   A    
C23   C25   A    
C20   O10   S    
C24   C30   A    
C21   O11   S    
C22   O12   S    
C13   N2    S    
C34   H17   S    
H14   N4    S    
C3    H3    S    
C8    C10   A    
C33   C34   S    
Cu2   O6    S    
C12   H10   S    
C15   C16   D    
C17   O5    A    
