data_str_m4_o1_o24_f0_acs.sym.12
_audit_creation_date              2012-12-11T14:52:27-0500
_audit_creation_method            fapswitch 2.2
_symmetry_space_group_name_H-M    P1
_symmetry_Int_Tables_number       1
_space_group_crystal_system       triclinic
_cell_length_a                    18.809979
_cell_length_b                    10.960937
_cell_length_c                    18.668196
_cell_angle_alpha                 90.1404
_cell_angle_beta                  90.965383
_cell_angle_gamma                 89.963915
_cell_volume                      3848.35666603

loop_
_atom_site_label
_atom_site_type_symbol
_atom_type_description
_atom_site_fract_x
_atom_site_fract_y
_atom_site_fract_z
_atom_type_partial_charge
C1    C     C_R   0.271402 0.044567 0.852958 0.560139
C2    C     C_R   0.700526 0.526219 0.037555 -0.144514
C3    C     C_3   0.007818 0.328399 0.069642 0.053856
C4    C     C_R   0.807736 0.041712 0.963328 -0.150060
C5    C     C_R   0.186504 0.067276 0.032391 -0.137938
C6    C     C_R   0.304101 0.539792 0.038602 -0.160766
C7    C     C_R   0.704167 0.510228 0.963855 -0.149336
C8    C     C_R   0.802326 0.030347 0.037288 -0.155229
C9    C     C_R   0.196215 0.035821 0.960932 -0.153578
C10   C     C_R   0.239688 0.568770 0.070900 0.029435
C11   C     C_R   0.750948 0.582237 0.923816 0.023594
C12   C     C_R   0.740052 0.068430 0.070874 0.028223
C13   C     C_R   0.726812 0.040212 0.145306 0.555157
C14   C     C_R   0.248228 0.095499 0.921034 0.024096
C15   C     C_R   0.181085 0.605908 0.028710 -0.140708
C16   C     C_R   0.790204 0.674949 0.956929 -0.137979
C17   C     C_R   0.682804 0.113927 0.029804 -0.145035
C18   C     C_R   0.286889 0.192193 0.951892 -0.128262
C19   C     C_R   0.186322 0.613378 0.955737 -0.143296
C20   C     C_R   0.787937 0.688653 0.029986 -0.139664
C21   C     C_R   0.687158 0.120743 0.956808 -0.146808
C22   C     C_R   0.278290 0.221473 0.023356 -0.143781
C23   C     C_R   0.251116 0.589652 0.923266 0.032013
C24   C     C_R   0.771482 0.543279 0.853025 0.561562
C25   C     C_R   0.744377 0.612781 0.071071 0.027245
C26   C     C_R   0.750333 0.089384 0.923116 0.030786
C27   C     C_R   0.229776 0.156968 0.064657 0.018891
C28   C     C_R   0.461112 0.727275 0.525467 -0.104026
C29   C     C_R   0.466869 0.731310 0.452161 -0.093802
C30   C     C_R   0.961086 0.227289 0.525461 -0.103948
C31   C     C_R   0.966849 0.231324 0.452154 -0.094213
C32   C     C_R   0.493100 0.836129 0.420043 0.027916
C33   C     C_R   0.480021 0.828501 0.568004 0.025011
C34   C     C_R   0.993096 0.336135 0.420040 0.026915
C35   C     C_R   0.226798 0.540423 0.145366 0.550913
C36   C     C_R   0.980011 0.328504 0.568001 0.024994
C37   C     C_R   0.502574 0.942737 0.460749 -0.147126
C38   C     C_R   0.498959 0.937896 0.535084 -0.153312
C39   C     C_R   0.002580 0.442737 0.460749 -0.147332
C40   C     C_R   0.998962 0.437894 0.535084 -0.153148
C41   C     C_R   0.471392 0.821923 0.854950 0.543801
C42   C     C_R   0.529151 0.821606 0.144688 0.539991
C43   C     C_R   0.970742 0.321889 0.855325 0.544326
C44   C     C_R   0.028703 0.321640 0.144963 0.530858
C45   C     C_R   0.176400 0.592207 0.547279 -0.153745
C46   C     C_3   0.538569 0.738404 0.970634 -0.119288
C47   C     C_R   0.825907 0.581560 0.451120 -0.147968
C48   C     C_R   0.676399 0.092191 0.547282 -0.153825
C49   C     C_R   0.325903 0.081561 0.451122 -0.147696
C50   C     C_R   0.166491 0.568431 0.475933 -0.115352
C51   C     C_R   0.837688 0.553822 0.522251 -0.100640
C52   C     C_R   0.666488 0.068412 0.475936 -0.115342
C53   C     C_R   0.337687 0.053819 0.522253 -0.100727
C54   C     C_R   0.218363 0.507681 0.438018 -0.030301
C55   C     C_R   0.783991 0.501172 0.561793 -0.031532
C56   C     C_R   0.718366 0.007681 0.438018 -0.029900
C57   C     C_3   0.479246 0.720828 0.025779 -0.114133
C58   C     C_R   0.283991 0.001171 0.561795 -0.031496
C59   C     C_R   0.277412 0.457339 0.474151 -0.114256
C60   C     C_R   0.722499 0.457958 0.527133 -0.103805
C61   C     C_R   0.777419 0.957351 0.474148 -0.114028
C62   C     C_R   0.222497 0.957964 0.527138 -0.103812
C63   C     C_R   0.289356 0.482307 0.546776 0.232319
C64   C     C_R   0.709135 0.485697 0.455460 0.251856
C65   C     C_R   0.789362 0.982316 0.546774 0.232166
C66   C     C_R   0.209127 0.985709 0.455468 0.251021
C67   C     C_R   0.240673 0.560727 0.581678 0.009447
C68   C     C_3   0.036504 0.238299 0.971086 -0.121080
C69   C     C_R   0.759069 0.559535 0.418948 0.002652
C70   C     C_R   0.740675 0.060724 0.581678 0.009349
C71   C     C_R   0.259064 0.059542 0.418952 0.002511
C72   C     C_R   0.260648 0.635502 0.851403 0.546430
C73   C     C_R   0.738175 0.641093 0.146472 0.544205
C74   C     C_R   0.760482 0.135285 0.851312 0.546060
C75   C     C_R   0.225395 0.185504 0.140866 0.550421
C76   C     C_R   0.292292 0.993117 0.639054 0.570954
C77   C     C_R   0.708504 0.994986 0.361294 0.571732
C78   C     C_R   0.792291 0.493118 0.639054 0.570997
C79   C     C_3   0.977339 0.220993 0.026405 -0.115530
C80   C     C_R   0.208504 0.494984 0.361293 0.573695
C81   C     C_R   0.465673 0.822724 0.644234 0.533775
C82   C     C_R   0.527286 0.824435 0.351203 0.539509
C83   C     C_R   0.965668 0.322723 0.644232 0.533966
C84   C     C_R   0.027285 0.324436 0.351202 0.539423
C85   C     C_R   0.258191 0.630119 0.646205 0.550103
C86   C     C_R   0.741439 0.631262 0.354771 0.557633
C87   C     C_R   0.758191 0.130119 0.646204 0.550172
C88   C     C_R   0.241438 0.131263 0.354771 0.565997
C89   C     C_3   0.461806 0.919866 0.029235 -0.124764
C90   C     C_R   0.309909 0.550227 0.964655 -0.151646
C91   C     C_3   0.520977 0.937494 0.973411 -0.120934
C92   C     C_3   0.960285 0.420095 0.029892 -0.124291
C93   C     C_3   0.019320 0.437385 0.973885 -0.119456
C94   C     C_3   0.431304 0.812131 0.984871 -0.108425
C95   C     C_3   0.569083 0.846190 0.014713 -0.108300
C96   C     C_3   0.929422 0.312482 0.985554 -0.107558
C97   C     C_3   0.067387 0.345901 0.014958 -0.111064
C98   C     C_3   0.491128 0.829438 0.930461 0.053419
C99   C     C_3   0.509292 0.828364 0.069121 0.054748
C100  C     C_3   0.989204 0.329478 0.931085 0.055665
Cr1   Cr    Cr6+3 0.229630 0.835900 0.747350 1.030755
Cr2   Cr    Cr6+3 0.614200 0.677120 0.250660 1.104396
Cr3   Cr    Cr6+3 0.885800 0.177120 0.749340 1.096340
Cr4   Cr    Cr6+3 0.114200 0.177120 0.250660 1.100933
Cr5   Cr    Cr6+3 0.770370 0.835900 0.252650 1.023712
Cr6   Cr    Cr6+3 0.729630 0.335900 0.747350 1.029170
Cr7   Cr    Cr6+3 0.270370 0.335900 0.252650 1.021938
Cr8   Cr    Cr6+3 0.387410 0.989850 0.750850 1.048715
Cr9   Cr    Cr6+3 0.612590 0.989850 0.249150 1.042304
Cr10  Cr    Cr6+3 0.887410 0.489850 0.750850 1.048891
Cr11  Cr    Cr6+3 0.112590 0.489850 0.249150 1.036469
Cr12  Cr    Cr6+3 0.385800 0.677120 0.749340 1.096118
H1    H     H_    0.374239 0.798582 0.970804 0.125651
H2    H     H_    0.887014 0.580965 0.547803 0.171703
H3    H     H_    0.619987 0.104279 0.449271 0.180965
H4    H     H_    0.387014 0.080960 0.547803 0.171762
H5    H     H_    0.314408 0.400397 0.445480 0.193280
H6    H     H_    0.683042 0.408449 0.556968 0.196660
H7    H     H_    0.814420 0.900419 0.445475 0.193497
H8    H     H_    0.183040 0.908460 0.556976 0.196679
H9    H     H_    0.429958 0.992927 0.054651 0.128227
H10   H     H_    0.537965 0.025450 0.950037 0.111740
H11   H     H_    0.928655 0.493346 0.055405 0.122731
H12   H     H_    0.626166 0.859579 0.028757 0.126698
H13   H     H_    0.035989 0.525319 0.950321 0.109285
H14   H     H_    0.570407 0.665274 0.945300 0.127688
H15   H     H_    0.461623 0.632595 0.048430 0.118626
H16   H     H_    0.067329 0.165037 0.944826 0.128059
H17   H     H_    0.959529 0.132879 0.049109 0.118955
H18   H     H_    0.360950 0.533212 0.940541 0.135276
H19   H     H_    0.664847 0.470058 0.068277 0.131960
H20   H     H_    0.857459 0.018352 0.938265 0.133353
H21   H     H_    0.147408 0.017975 0.062862 0.142715
H22   H     H_    0.349307 0.508744 0.070299 0.117052
H23   H     H_    0.872331 0.298984 0.971539 0.124762
H24   H     H_    0.673455 0.437513 0.939037 0.137021
H25   H     H_    0.846328 0.992252 0.067994 0.117715
H26   H     H_    0.165728 0.960927 0.938213 0.133383
H27   H     H_    0.129792 0.625955 0.051535 0.142648
H28   H     H_    0.825960 0.732290 0.926978 0.138891
H29   H     H_    0.633008 0.141014 0.053483 0.141901
H30   H     H_    0.326938 0.240516 0.922082 0.141275
H31   H     H_    0.140399 0.644612 0.925149 0.128782
H32   H     H_    0.820184 0.760068 0.054059 0.139829
H33   H     H_    0.642038 0.157804 0.927287 0.129673
H34   H     H_    0.124517 0.359097 0.028704 0.117229
H35   H     H_    0.311476 0.291659 0.047141 0.132350
H36   H     H_    0.441338 0.644384 0.548355 0.201071
H37   H     H_    0.455055 0.649888 0.421181 0.175795
H38   H     H_    0.941297 0.144407 0.548347 0.201030
H39   H     H_    0.955027 0.149909 0.421171 0.175593
H40   H     H_    0.515743 0.027693 0.435217 0.122225
H41   H     H_    0.509666 0.019292 0.566460 0.121046
H42   H     H_    0.015761 0.527690 0.435220 0.122074
H43   H     H_    0.009677 0.519284 0.566462 0.121027
H44   H     H_    0.444117 0.283013 0.558553 0.362807
H45   H     H_    0.135864 0.645710 0.573419 0.173135
H46   H     H_    0.546317 0.303936 0.447585 0.364455
H47   H     H_    0.944105 0.782958 0.558570 0.362780
H48   H     H_    0.046294 0.803984 0.447618 0.364317
H49   H     H_    0.867265 0.630550 0.423553 0.168842
H50   H     H_    0.635860 0.145684 0.573424 0.173137
H51   H     H_    0.367262 0.130549 0.423555 0.169195
H52   H     H_    0.119995 0.604318 0.449266 0.180910
O1    O     O_R   0.214270 0.709000 0.827470 -0.526092
O2    O     O_R   0.543270 0.717630 0.330160 -0.460612
O3    O     O_R   0.956730 0.217630 0.669840 -0.474293
O4    O     O_R   0.043270 0.217630 0.330160 -0.459960
O5    O     O_R   0.320620 0.625640 0.672920 -0.438600
O6    O     O_R   0.679380 0.625640 0.327080 -0.419155
O7    O     O_R   0.820620 0.125640 0.672920 -0.438634
O8    O     O_R   0.179380 0.125640 0.327080 -0.415359
O9    O     O_3   0.334280 0.834290 0.749180 -0.297943
O10   O     O_3   0.665720 0.834290 0.250820 -0.293279
O11   O     O_3   0.834280 0.334290 0.749180 -0.298251
O12   O     O_R   0.785730 0.709000 0.172530 -0.530123
O13   O     O_3   0.165720 0.334290 0.250820 -0.311545
O14   O     O_R   0.236160 0.958490 0.823130 -0.500157
O15   O     O_R   0.763840 0.958490 0.176870 -0.504303
O16   O     O_R   0.736160 0.458490 0.823130 -0.503021
O17   O     O_R   0.263840 0.458490 0.176870 -0.518848
O18   O     O_R   0.332080 0.075470 0.831280 -0.507841
O19   O     O_R   0.667920 0.075470 0.168720 -0.512277
O20   O     O_R   0.832080 0.575470 0.831280 -0.506586
O21   O     O_R   0.167920 0.575470 0.168720 -0.508721
O22   O     O_R   0.446300 0.918110 0.826620 -0.502932
O23   O     O_R   0.714270 0.209000 0.827470 -0.528489
O24   O     O_R   0.553700 0.918110 0.173380 -0.507735
O25   O     O_R   0.946300 0.418110 0.826620 -0.503476
O26   O     O_R   0.053700 0.418110 0.173380 -0.510552
O27   O     O_R   0.457110 0.716200 0.831760 -0.515007
O28   O     O_R   0.542890 0.716200 0.168240 -0.519703
O29   O     O_R   0.957110 0.216200 0.831760 -0.514742
O30   O     O_R   0.042890 0.216200 0.168240 -0.528034
O31   O     O_R   0.320980 0.624310 0.823030 -0.497965
O32   O     O_R   0.679020 0.624310 0.176970 -0.495071
O33   O     O_R   0.820980 0.124310 0.823030 -0.497122
O34   O     O_R   0.285730 0.209000 0.172530 -0.514504
O35   O     O_R   0.179020 0.124310 0.176970 -0.492836
O36   O     O_R   0.213890 0.710430 0.665540 -0.546891
O37   O     O_R   0.786110 0.710430 0.334460 -0.545454
O38   O     O_R   0.713890 0.210430 0.665540 -0.546672
O39   O     O_R   0.286110 0.210430 0.334460 -0.542655
O40   O     O_R   0.235810 0.959820 0.673020 -0.497468
O41   O     O_R   0.764190 0.959820 0.326980 -0.502936
O42   O     O_R   0.735810 0.459820 0.673020 -0.497263
O43   O     O_R   0.264190 0.459820 0.326980 -0.501846
O44   O     O_R   0.331700 0.076900 0.669350 -0.443456
O45   O     O_R   0.445950 0.919440 0.676520 -0.535629
O46   O     O_R   0.668300 0.076900 0.330650 -0.469505
O47   O     O_R   0.831700 0.576900 0.669350 -0.443361
O48   O     O_R   0.168300 0.576900 0.330650 -0.467170
O49   O     O_2   0.413082 0.480041 0.626286 -0.279463
O50   O     O_2   0.324268 0.324039 0.649451 -0.245331
O51   O     O_3   0.399309 0.307530 0.533901 -0.580059
O52   O     O_2   0.576071 0.533554 0.413614 -0.270183
O53   O     O_2   0.640635 0.380555 0.343767 -0.268357
O54   O     O_3   0.593598 0.321752 0.469334 -0.582038
O55   O     O_2   0.913088 0.980051 0.626286 -0.279467
O56   O     O_R   0.554050 0.919440 0.323480 -0.534871
O57   O     O_2   0.824279 0.824038 0.649441 -0.245262
O58   O     O_3   0.899323 0.807550 0.533893 -0.579995
O59   O     O_2   0.076062 0.033605 0.413650 -0.270846
O60   O     O_2   0.140595 0.880589 0.343787 -0.263635
O61   O     O_3   0.093579 0.821791 0.469361 -0.582376
O62   O     O_R   0.945950 0.419440 0.676520 -0.535495
O63   O     O_R   0.054050 0.419440 0.323480 -0.533825
O64   O     O_R   0.456730 0.717630 0.669840 -0.474442
S1    S     S_3+6 0.357816 0.399256 0.592094 -0.000397
S2    S     S_3+6 0.628387 0.430798 0.417536 0.013549
S3    S     S_3+6 0.857825 0.899265 0.592089 -0.000363
S4    S     S_3+6 0.128368 0.930833 0.417559 0.014541

loop_
_geom_bond_atom_site_label_1
_geom_bond_atom_site_label_2
_ccdc_geom_bond_type
C95   H12   S    
C58   C62   A    
C81   O45   A    
C21   C26   A    
Cr2   O6    S    
C88   O8    A    
C81   O64   A    
C61   H7    S    
C72   O1    A    
C20   H32   S    
Cr1   O9    S    
C2    C7    A    
O58   S3    S    
C4    C8    A    
C3    C79   S    
C72   O31   A    
C68   C100  S    
Cr8   O45   S    
Cr1   O36   S    
C58   C76   S    
C4    H20   S    
Cr10  O11   S    
Cr3   O3    S    
C50   C54   A    
Cr7   O17   S    
Cr12  O64   S    
Cr8   O22   S    
C16   C20   A    
C25   C73   S    
Cr6   O23   S    
C15   C19   A    
C29   C32   A    
C10   C15   A    
O60   S4    D    
C30   C31   A    
C95   C99   S    
C30   H38   S    
C48   H50   S    
C20   C25   A    
C94   C98   S    
C36   C83   S    
C65   C70   A    
C79   H17   S    
C66   S4    S    
C11   C24   S    
C92   C96   S    
H48   O61   S    
C17   H29   S    
Cr3   O33   S    
C89   C94   S    
C14   C18   A    
C68   C97   S    
C47   C69   A    
C1    O14   A    
Cr1   O14   S    
C44   O26   A    
C5    C27   A    
Cr8   O18   S    
O54   S2    S    
C46   C95   S    
Cr4   O13   S    
C13   O19   A    
Cr5   O12   S    
C12   C17   A    
C24   O16   A    
Cr2   O28   S    
Cr6   O11   S    
C40   H43   S    
C60   H6    S    
C10   C35   S    
C89   C91   S    
C68   H16   S    
C87   O38   A    
Cr7   O43   S    
C53   H4    S    
C35   O21   A    
C80   O48   A    
Cr9   O19   S    
C68   C79   S    
Cr12  O9    S    
C46   C98   S    
Cr10  O20   S    
Cr2   O2    S    
O51   S1    S    
C55   C60   A    
Cr7   O13   S    
Cr3   O7    S    
Cr7   O39   S    
C16   H28   S    
C34   C84   S    
Cr5   O15   S    
C27   C75   S    
C70   C87   S    
Cr6   O16   S    
C94   H1    S    
C57   H15   S    
C7    C11   A    
C96   H23   S    
C15   H27   S    
C54   C59   A    
Cr9   O24   S    
Cr11  O48   S    
C63   C67   A    
C3    C44   S    
C67   C85   S    
O61   S4    S    
C28   H36   S    
C62   C66   A    
C39   H42   S    
C50   H52   S    
C34   C39   A    
C51   H2    S    
C18   H30   S    
C45   H45   S    
C43   C100  S    
Cr10  O62   S    
C92   H11   S    
C48   C70   A    
C39   C40   A    
C55   C78   S    
C41   O27   A    
Cr9   O10   S    
C92   C93   S    
C47   C51   A    
C6    C90   A    
C83   O3    A    
C46   C57   S    
C91   H10   S    
C85   O5    A    
C56   C77   S    
C17   C21   A    
C3    C92   S    
C47   H49   S    
C5    H21   S    
C9    C14   A    
C78   O42   A    
Cr12  O31   S    
C5    C9    A    
C37   C38   A    
C84   O4    A    
C77   O41   A    
O53   S2    D    
Cr6   O38   S    
C31   H39   S    
C9    H26   S    
C3    C97   S    
C85   O36   A    
Cr5   O37   S    
Cr12  O5    S    
C93   C100  S    
C74   O33   A    
C36   C40   A    
C63   S1    S    
C8    C12   A    
C87   O7    A    
Cr8   O9    S    
O57   S3    D    
H44   O51   S    
Cr3   O11   S    
C2    H19   S    
C23   C90   A    
C56   C61   A    
C32   C37   A    
C22   H35   S    
Cr1   O1    S    
C86   O37   A    
C66   C71   A    
Cr11  O26   S    
C61   C65   A    
C53   C58   A    
C77   O46   A    
C89   C99   S    
C28   C33   A    
C76   O44   A    
C57   C94   S    
C54   C80   S    
C22   C27   A    
Cr4   O35   S    
C84   O63   A    
C35   O17   A    
C37   H40   S    
Cr9   O46   S    
C93   C97   S    
Cr4   O8    S    
O49   S1    D    
O59   S4    D    
C19   C23   A    
C74   O23   A    
C82   O2    A    
C52   H3    S    
C42   O24   A    
Cr8   O44   S    
C28   C29   A    
C19   H31   S    
C86   O6    A    
C62   H8    S    
C23   C72   S    
C46   H14   S    
C31   C34   A    
O55   S3    D    
Cr1   O40   S    
Cr2   O32   S    
Cr5   O10   S    
Cr6   O42   S    
Cr7   O34   S    
C4    C26   A    
C1    O18   A    
C76   O40   A    
Cr5   O41   S    
C45   C67   A    
C75   O35   A    
C24   O20   A    
Cr2   O10   S    
H47   O58   S    
C32   C82   S    
C43   O29   A    
Cr10  O25   S    
C59   C63   A    
C33   C38   A    
Cr4   O4    S    
C30   C36   A    
C60   C64   A    
Cr11  O63   S    
Cr10  O47   S    
C18   C22   A    
C79   C96   S    
C6    H22   S    
Cr9   O56   S    
C13   O15   A    
C42   C99   S    
C65   S3    S    
C64   S2    S    
C91   C98   S    
C2    C25   A    
C89   H9    S    
C45   C50   A    
C73   O12   A    
C49   C53   A    
C96   C100  S    
C75   O34   A    
C44   O30   A    
C26   C74   S    
O52   S2    D    
C41   O22   A    
Cr11  O21   S    
C51   C55   A    
C88   O39   A    
C64   C69   A    
C93   H13   S    
C49   H51   S    
C11   C16   A    
C6    C10   A    
C29   H37   S    
C71   C88   S    
C90   H18   S    
C97   H34   S    
C42   O28   A    
C7    H24   S    
C80   O43   A    
C82   O56   A    
C12   C13   S    
C43   O25   A    
C91   C95   S    
C59   H5    S    
C49   C71   A    
C73   O32   A    
Cr11  O13   S    
Cr4   O30   S    
C41   C98   S    
C8    H25   S    
C1    C14   S    
H46   O54   S    
C38   H41   S    
C48   C52   A    
O50   S1    D    
C33   C81   S    
C78   O47   A    
C21   H33   S    
C69   C86   S    
C52   C56   A    
Cr3   O29   S    
Cr12  O27   S    
C83   O62   A    
C57   C99   S    
