data_str_m4_o4_o14_f0_acs.sym.49
_audit_creation_date              2012-12-11T15:43:10-0500
_audit_creation_method            fapswitch 2.2
_symmetry_space_group_name_H-M    P1
_symmetry_Int_Tables_number       1
_space_group_crystal_system       triclinic
_cell_length_a                    19.045932
_cell_length_b                    10.983565
_cell_length_c                    18.830128
_cell_angle_alpha                 90.117696
_cell_angle_beta                  89.609444
_cell_angle_gamma                 90.264703
_cell_volume                      3938.97489783

loop_
_atom_site_label
_atom_site_type_symbol
_atom_type_description
_atom_site_fract_x
_atom_site_fract_y
_atom_site_fract_z
_atom_type_partial_charge
C1    C     C_R   0.730037 0.375332 0.145605 0.544910
C2    C     C_R   0.023186 0.000791 0.027367 -0.138335
C3    C     C_R   0.757305 0.435418 0.570571 -0.036621
C4    C     C_R   0.729162 0.378802 0.351975 0.533917
C5    C     C_R   0.271322 0.374249 0.646351 0.555911
C6    C     C_R   0.229163 0.878803 0.351974 0.533925
C7    C     C_R   0.771325 0.874242 0.646348 0.555921
C8    C     C_R   0.531147 0.156575 0.352717 0.529821
C9    C     C_R   0.465372 0.157941 0.645340 0.547172
C10   C     C_R   0.031149 0.656574 0.352719 0.529832
C11   C     C_R   0.965377 0.657941 0.645341 0.547165
C12   C     C_R   0.742416 0.969227 0.353331 0.515270
C13   C     C_R   0.533639 0.492115 0.954468 -0.129306
C14   C     C_R   0.260628 0.974051 0.644252 0.537315
C15   C     C_R   0.242413 0.469234 0.353334 0.515273
C16   C     C_R   0.760629 0.474053 0.644251 0.537314
C17   C     C_R   0.496004 0.161712 0.925778 -0.001277
C18   C     C_R   0.502835 0.168856 0.074769 -0.002243
C19   C     C_R   0.995998 0.661710 0.925781 -0.001277
C20   C     C_R   0.002831 0.668856 0.074772 -0.002244
C21   C     C_R   0.511441 0.273442 0.959775 0.011610
C22   C     C_R   0.508684 0.279520 0.035092 0.029964
C23   C     C_R   0.011437 0.773440 0.959777 0.011607
C24   C     C_R   0.523193 0.500791 0.027366 -0.138326
C25   C     C_R   0.008681 0.779519 0.035094 0.029966
C26   C     C_R   0.488814 0.060133 0.039334 -0.169161
C27   C     C_R   0.487837 0.055985 0.966570 -0.155131
C28   C     C_R   0.988804 0.560134 0.039338 -0.169158
C29   C     C_R   0.987823 0.555985 0.966574 -0.155122
C30   C     C_2   0.680908 0.739197 0.412143 0.219601
C31   C     C_2   0.387615 0.869836 0.554618 0.209147
C32   C     C_2   0.180889 0.239224 0.412154 0.219578
C33   C     C_2   0.887616 0.369820 0.554610 0.208998
C34   C     C_R   0.778573 0.843599 0.937990 0.014261
C35   C     C_R   0.247314 0.906579 0.073194 0.018350
C36   C     C_R   0.278573 0.343598 0.937990 0.014266
C37   C     C_R   0.747319 0.406584 0.073197 0.018352
C38   C     C_R   0.714433 0.818821 0.971557 0.006872
C39   C     C_R   0.277378 0.817582 0.028967 0.038504
C40   C     C_R   0.214435 0.318815 0.971557 0.006885
C41   C     C_R   0.288364 0.329662 0.861282 0.565355
C42   C     C_R   0.777370 0.317577 0.028966 0.038500
C43   C     C_R   0.704187 0.846053 0.042771 0.005154
C44   C     C_R   0.277647 0.830637 0.955949 0.007511
C45   C     C_R   0.204188 0.346050 0.042771 0.005157
C46   C     C_R   0.777637 0.330634 0.955949 0.007502
C47   C     C_R   0.825378 0.905478 0.052545 -0.157863
C48   C     C_R   0.207413 0.011158 0.968971 -0.137812
C49   C     C_R   0.325378 0.405483 0.052544 -0.157854
C50   C     C_R   0.707429 0.511190 0.968976 -0.137811
C51   C     C_R   0.835483 0.878653 0.980534 -0.156682
C52   C     C_R   0.230036 0.875331 0.145604 0.544911
C53   C     C_R   0.209713 0.001131 0.041960 -0.143928
C54   C     C_R   0.335482 0.378657 0.980533 -0.156678
C55   C     C_R   0.709730 0.501156 0.041966 -0.143930
C56   C     C_3   0.642238 0.858732 0.952276 -0.268786
C57   C     C_3   0.349852 0.765719 0.028027 -0.270344
C58   C     C_3   0.142238 0.358718 0.952278 -0.268784
C59   C     C_3   0.849836 0.265671 0.028021 -0.270329
C60   C     C_3   0.631160 0.888859 0.030154 -0.260655
C61   C     C_3   0.348907 0.777368 0.947578 -0.280326
C62   C     C_3   0.131160 0.388846 0.030156 -0.260658
C63   C     C_R   0.788364 0.829662 0.861282 0.565352
C64   C     C_3   0.848888 0.277320 0.947572 -0.280322
C65   C     C_R   0.757749 0.899488 0.082854 0.014423
C66   C     C_R   0.245977 0.931414 0.925002 0.023071
C67   C     C_R   0.257749 0.399489 0.082854 0.014427
C68   C     C_R   0.745980 0.431428 0.925005 0.023079
C69   C     C_R   0.531674 0.156273 0.146684 0.535116
C70   C     C_R   0.468565 0.155190 0.853155 0.531193
C71   C     C_R   0.031673 0.656273 0.146685 0.535123
C72   C     C_R   0.968563 0.655189 0.853156 0.531195
C73   C     C_R   0.485958 0.169353 0.571892 0.001144
C74   C     C_R   0.528384 0.379537 0.920772 -0.096365
C75   C     C_R   0.502135 0.159270 0.423978 0.001725
C76   C     C_R   0.985965 0.669345 0.571891 0.001114
C77   C     C_R   0.002117 0.659269 0.423972 0.001682
C78   C     C_R   0.511295 0.066435 0.539393 0.068796
C79   C     C_R   0.518469 0.060932 0.467456 0.078249
C80   C     C_R   0.011214 0.566365 0.539375 0.068660
C81   C     C_R   0.018376 0.560864 0.467436 0.078118
C82   C     C_R   0.469264 0.260539 0.454609 -0.181382
C83   C     C_R   0.460376 0.264635 0.528799 -0.159620
C84   C     C_R   0.969326 0.760615 0.454621 -0.181359
C85   C     C_R   0.510976 0.396098 0.067462 -0.087230
C86   C     C_R   0.960457 0.764718 0.528813 -0.159596
C87   C     C_3   0.577351 0.999743 0.553257 -0.270976
C88   C     C_3   0.585578 0.993276 0.473495 -0.224110
C89   C     C_3   0.077222 0.499504 0.553230 -0.270875
C90   C     C_3   0.085443 0.493051 0.473469 -0.223979
C91   C     C_R   0.752298 0.905052 0.574574 -0.013269
C92   C     C_R   0.244181 0.920641 0.422690 -0.020529
C93   C     C_R   0.252289 0.405079 0.574581 -0.013327
C94   C     C_R   0.744178 0.420642 0.422690 -0.020541
C95   C     C_R   0.778896 0.008902 0.543104 -0.020900
C96   C     C_R   0.028380 0.879535 0.920774 -0.096365
C97   C     C_R   0.187573 0.950491 0.466290 0.091544
C98   C     C_R   0.278903 0.508916 0.543108 -0.020877
C99   C     C_R   0.687570 0.450492 0.466291 0.091522
C100  C     C_R   0.779749 0.020050 0.471047 0.004311
C101  C     C_R   0.194251 0.960670 0.537960 0.028253
C102  C     C_R   0.279748 0.520070 0.471050 0.004345
C103  C     C_R   0.694250 0.460672 0.537960 0.028222
C104  C     C_R   0.717325 0.830244 0.456809 -0.036816
C105  C     C_R   0.318023 0.909334 0.526879 -0.022267
C106  C     C_R   0.217299 0.330283 0.456819 -0.036790
C107  C     C_R   0.010972 0.896097 0.067464 -0.087231
C108  C     C_R   0.818023 0.409333 0.526876 -0.022250
C109  C     C_R   0.717492 0.818116 0.531397 -0.125683
C110  C     C_R   0.310274 0.908366 0.452496 -0.147019
C111  C     C_R   0.217464 0.318161 0.531407 -0.125695
C112  C     C_R   0.810271 0.408371 0.452494 -0.147026
C113  C     C_3   0.846626 0.075135 0.551481 -0.241105
C114  C     C_3   0.117197 0.891321 0.472749 -0.218915
C115  C     C_3   0.346654 0.575095 0.551476 -0.241150
C116  C     C_3   0.617192 0.391324 0.472752 -0.218902
C117  C     C_R   0.742047 0.967585 0.147941 0.540345
C118  C     C_R   0.033630 0.992114 0.954469 -0.129315
C119  C     C_R   0.258110 0.970415 0.852577 0.540925
C120  C     C_R   0.242047 0.467586 0.147941 0.540353
C121  C     C_R   0.758111 0.470417 0.852577 0.540927
C122  C     C_3   0.849170 0.083458 0.471070 -0.215884
C123  C     C_3   0.124213 0.904151 0.552230 -0.275115
C124  C     C_3   0.349183 0.583434 0.471066 -0.215962
C125  C     C_3   0.624211 0.404155 0.552233 -0.275102
C126  C     C_R   0.752469 0.930592 0.426081 -0.024389
C127  C     C_R   0.257304 0.935414 0.570572 -0.036624
C128  C     C_R   0.252457 0.430615 0.426088 -0.024423
Cr1   Cr    Cr6+3 0.772010 0.169670 0.250090 1.012977
Cr2   Cr    Cr6+3 0.383290 0.010760 0.749160 0.994766
Cr3   Cr    Cr6+3 0.116710 0.510760 0.250840 1.020428
Cr4   Cr    Cr6+3 0.883290 0.510760 0.749160 0.994731
Cr5   Cr    Cr6+3 0.227990 0.169670 0.749910 1.008342
Cr6   Cr    Cr6+3 0.272010 0.669670 0.250090 1.012990
Cr7   Cr    Cr6+3 0.727990 0.669670 0.749910 1.008352
Cr8   Cr    Cr6+3 0.615000 0.323260 0.249260 1.014412
Cr9   Cr    Cr6+3 0.385000 0.323260 0.750740 0.996920
Cr10  Cr    Cr6+3 0.115000 0.823260 0.249260 1.014405
Cr11  Cr    Cr6+3 0.885000 0.823260 0.750740 0.996919
Cr12  Cr    Cr6+3 0.616710 0.010760 0.250840 1.020466
H1    H     H_    0.483354 0.975001 0.067796 0.130913
H2    H     H_    0.130530 0.547410 0.453221 0.131911
H3    H     H_    0.567696 0.909531 0.578204 0.182281
H4    H     H_    0.630625 0.047714 0.453234 0.131839
H5    H     H_    0.617807 0.057407 0.579430 0.115748
H6    H     H_    0.579511 0.900189 0.451695 0.223303
H7    H     H_    0.117726 0.557065 0.579413 0.115770
H8    H     H_    0.079323 0.399974 0.451658 0.223367
H9    H     H_    0.694775 0.736963 0.554954 0.179762
H10   H     H_    0.354182 0.886471 0.417918 0.174032
H11   H     H_    0.194740 0.237016 0.554966 0.179785
H12   H     H_    0.478871 0.968202 0.942332 0.136936
H13   H     H_    0.854179 0.386483 0.417914 0.174033
H14   H     H_    0.890010 0.021083 0.573706 0.154458
H15   H     H_    0.118552 0.795030 0.454815 0.133682
H16   H     H_    0.390029 0.521003 0.573685 0.154450
H17   H     H_    0.618547 0.295034 0.454818 0.133653
H18   H     H_    0.837018 0.161889 0.579435 0.136968
H19   H     H_    0.074807 0.948274 0.450138 0.188055
H20   H     H_    0.337077 0.661852 0.579438 0.136916
H21   H     H_    0.574799 0.448273 0.450143 0.188067
H22   H     H_    0.845510 0.177029 0.450372 0.184653
H23   H     H_    0.983340 0.475003 0.067802 0.130914
H24   H     H_    0.086454 0.970004 0.575768 0.161277
H25   H     H_    0.345543 0.677016 0.450379 0.184593
H26   H     H_    0.586453 0.470008 0.575772 0.161292
H27   H     H_    0.891489 0.027633 0.446692 0.137912
H28   H     H_    0.127790 0.815384 0.580306 0.122346
H29   H     H_    0.391486 0.527589 0.446676 0.137904
H30   H     H_    0.627789 0.315387 0.580309 0.122325
H31   H     H_    0.538022 0.376444 0.864147 0.134785
H32   H     H_    0.499625 0.409448 0.123146 0.134713
H33   H     H_    0.038019 0.876443 0.864149 0.134786
H34   H     H_    0.978845 0.468203 0.942338 0.136942
H35   H     H_    0.999622 0.909447 0.123148 0.134711
H36   H     H_    0.044828 0.073133 0.923726 0.105898
H37   H     H_    0.024870 0.089019 0.053063 0.101950
H38   H     H_    0.544840 0.573133 0.923726 0.105904
H39   H     H_    0.524880 0.589019 0.053062 0.101952
H40   H     H_    0.868813 0.942804 0.082317 0.130796
H41   H     H_    0.178785 0.087120 0.947485 0.145734
H42   H     H_    0.368812 0.442813 0.082314 0.130796
H43   H     H_    0.678808 0.587162 0.947493 0.145732
H44   H     H_    0.886420 0.894485 0.956896 0.153486
H45   H     H_    0.454144 0.337315 0.422315 0.121236
H46   H     H_    0.180641 0.066101 0.073923 0.138486
H47   H     H_    0.386420 0.394491 0.956895 0.153482
H48   H     H_    0.680666 0.566134 0.073932 0.138477
H49   H     H_    0.108898 0.281877 0.933730 0.124117
H50   H     H_    0.850603 0.169640 0.046308 0.157452
H51   H     H_    0.608896 0.781894 0.933727 0.124119
H52   H     H_    0.350637 0.669689 0.046313 0.157440
H53   H     H_    0.642228 0.940389 0.917432 0.156095
H54   H     H_    0.388805 0.826478 0.053992 0.124026
H55   H     H_    0.142225 0.440373 0.917433 0.156095
H56   H     H_    0.434198 0.341420 0.552341 0.139393
H57   H     H_    0.888804 0.326410 0.053983 0.124019
H58   H     H_    0.625736 0.988054 0.040324 0.166488
H59   H     H_    0.387806 0.843058 0.926221 0.152331
H60   H     H_    0.125731 0.488041 0.040324 0.166488
H61   H     H_    0.887801 0.342984 0.926212 0.152311
H62   H     H_    0.591325 0.829685 0.056496 0.129756
H63   H     H_    0.347437 0.687885 0.919896 0.151899
H64   H     H_    0.091328 0.329668 0.056498 0.129755
H65   H     H_    0.847396 0.187834 0.919891 0.151909
H66   H     H_    0.697519 0.724236 0.357596 0.119300
H67   H     H_    0.954276 0.837461 0.422342 0.121241
H68   H     H_    0.397770 0.856781 0.610228 0.163721
H69   H     H_    0.197493 0.224277 0.357605 0.119326
H70   H     H_    0.897802 0.356890 0.610226 0.163817
H71   H     H_    0.934359 0.841596 0.552371 0.139357
H72   H     H_    0.067494 0.409298 0.578164 0.182347
O1    O     O_R   0.787520 0.042810 0.170440 -0.529238
O2    O     O_R   0.454050 0.051210 0.669140 -0.522100
O3    O     O_R   0.045950 0.551210 0.330860 -0.508360
O4    O     O_R   0.954050 0.551210 0.669140 -0.522187
O5    O     O_R   0.681390 0.959480 0.325510 -0.512197
O6    O     O_R   0.318610 0.959480 0.674490 -0.534173
O7    O     O_R   0.181390 0.459480 0.325510 -0.512226
O8    O     O_R   0.818610 0.459480 0.674490 -0.534191
O9    O     O_3   0.667900 0.167900 0.250060 -0.247221
O10   O     O_3   0.332100 0.167900 0.749940 -0.264889
O11   O     O_3   0.167900 0.667900 0.250060 -0.247215
O12   O     O_R   0.212480 0.042810 0.829560 -0.538246
O13   O     O_3   0.832100 0.667900 0.749940 -0.264883
O14   O     O_R   0.765640 0.292100 0.175020 -0.499694
O15   O     O_R   0.234360 0.292100 0.824980 -0.500769
O16   O     O_R   0.265640 0.792100 0.175020 -0.499691
O17   O     O_R   0.734360 0.792100 0.824980 -0.500768
O18   O     O_R   0.670190 0.408840 0.168540 -0.521385
O19   O     O_R   0.329810 0.408840 0.831460 -0.520387
O20   O     O_R   0.170190 0.908840 0.168540 -0.521392
O21   O     O_R   0.829810 0.908840 0.831460 -0.520392
O22   O     O_R   0.556620 0.251410 0.175160 -0.510689
O23   O     O_R   0.287520 0.542810 0.170440 -0.529234
O24   O     O_R   0.443380 0.251410 0.824840 -0.525965
O25   O     O_R   0.056620 0.751410 0.175160 -0.510688
O26   O     O_R   0.943380 0.751410 0.824840 -0.525966
O27   O     O_R   0.545960 0.049620 0.170320 -0.524636
O28   O     O_R   0.454040 0.049620 0.829680 -0.525376
O29   O     O_R   0.045960 0.549620 0.170320 -0.524634
O30   O     O_R   0.954040 0.549620 0.829680 -0.525370
O31   O     O_R   0.681390 0.958010 0.176690 -0.500026
O32   O     O_R   0.318610 0.958010 0.823310 -0.501895
O33   O     O_R   0.181390 0.458010 0.176690 -0.500025
O34   O     O_R   0.712480 0.542810 0.829560 -0.538243
O35   O     O_R   0.818610 0.458010 0.823310 -0.501890
O36   O     O_R   0.787510 0.044390 0.330970 -0.514887
O37   O     O_R   0.212490 0.044390 0.669030 -0.509381
O38   O     O_R   0.287510 0.544390 0.330970 -0.514876
O39   O     O_R   0.712490 0.544390 0.669030 -0.509379
O40   O     O_R   0.765630 0.293570 0.323840 -0.509652
O41   O     O_R   0.234370 0.293570 0.676160 -0.506342
O42   O     O_R   0.265630 0.793570 0.323840 -0.509644
O43   O     O_R   0.734370 0.793570 0.676160 -0.506343
O44   O     O_R   0.670190 0.410420 0.329080 -0.504454
O45   O     O_R   0.556610 0.252880 0.323980 -0.511014
O46   O     O_R   0.329810 0.410420 0.670920 -0.522414
O47   O     O_R   0.170190 0.910420 0.329080 -0.504461
O48   O     O_R   0.829810 0.910420 0.670920 -0.522414
O49   O     O_2   0.630101 0.683404 0.435081 -0.530053
O50   O     O_2   0.434746 0.840262 0.513903 -0.545285
O51   O     O_2   0.130098 0.183393 0.435099 -0.530143
O52   O     O_2   0.934715 0.340093 0.513888 -0.545436
O53   O     O_R   0.443390 0.252880 0.676020 -0.512447
O54   O     O_R   0.056610 0.752880 0.323980 -0.511009
O55   O     O_R   0.943390 0.752880 0.676020 -0.512423
O56   O     O_R   0.545950 0.051210 0.330860 -0.508307

loop_
_geom_bond_atom_site_label_1
_geom_bond_atom_site_label_2
_ccdc_geom_bond_type
C1    O14   A    
C78   C87   S    
C99   C103  A    
C87   C88   S    
C41   O15   A    
C58   C62   S    
C27   H12   S    
C32   H69   S    
Cr5   O37   S    
C115  H16   S    
C35   C53   A    
C2    C107  A    
C44   C66   A    
C50   H43   S    
C18   C26   A    
C113  H14   S    
Cr9   O19   S    
C61   H59   S    
C94   C99   A    
C62   H64   S    
C36   C41   S    
C14   O37   A    
Cr9   O46   S    
C33   O52   D    
Cr2   O28   S    
C34   C51   A    
C101  C123  S    
C57   C61   S    
C8    O45   A    
C31   O50   D    
C100  C126  A    
C71   O25   A    
C96   C118  A    
C28   C29   A    
C105  C110  A    
C84   C86   A    
C102  C128  A    
C11   C76   S    
C120  O23   A    
C104  C109  A    
C54   H47   S    
C8    O56   A    
C10   O3    A    
C12   C126  S    
C20   C25   A    
C3    C103  A    
C49   C54   A    
C30   H66   S    
C106  C128  A    
C58   H55   S    
C37   C42   A    
Cr5   O12   S    
C23   C96   A    
C6    O42   A    
Cr10  O25   S    
Cr3   O7    S    
C42   C46   A    
C22   C85   A    
C5    O41   A    
C80   C89   S    
Cr2   O6    S    
C119  O12   A    
C90   H8    S    
Cr3   O33   S    
C91   C109  A    
Cr2   O32   S    
C1    O18   A    
C52   O16   A    
Cr8   O9    S    
C41   O19   A    
C31   H68   S    
C88   H4    S    
Cr8   O22   S    
Cr1   O14   S    
Cr11  O21   S    
C73   C78   A    
Cr12  O56   S    
C20   C71   S    
Cr2   O2    S    
Cr4   O4    S    
C2    H37   S    
C7    O48   A    
C113  H18   S    
C26   H1    S    
C49   C67   A    
C24   C85   A    
C29   H34   S    
C60   H58   S    
C11   O4    A    
C63   O17   A    
C64   H61   S    
C81   C90   S    
C56   H51   S    
C118  H36   S    
C17   C70   S    
C3    C108  A    
C32   C106  S    
C119  O32   A    
Cr11  O26   S    
C31   C105  S    
Cr7   O34   S    
C123  H28   S    
C19   C72   S    
C40   C45   A    
C33   C108  S    
C9    C73   S    
C58   H49   S    
C102  C124  S    
C95   C113  S    
C79   C88   S    
C16   O39   A    
C92   C97   A    
C89   H72   S    
C106  C111  A    
C2    C118  A    
C48   C53   A    
C18   C22   A    
C59   H57   S    
C15   C128  S    
C85   H32   S    
C40   C58   S    
C96   H33   S    
C113  C122  S    
C82   H45   S    
Cr3   O3    S    
C121  O35   A    
C17   C27   A    
C72   O30   A    
C116  H21   S    
C36   C40   A    
C86   H71   S    
C71   O29   A    
C57   H52   S    
Cr1   O9    S    
C51   H44   S    
Cr3   O29   S    
Cr5   O41   S    
C99   C116  S    
C105  C127  A    
C95   C100  A    
C52   O20   A    
C47   C51   A    
C5    O46   A    
C20   C28   A    
C77   C84   A    
Cr6   O11   S    
C98   C102  A    
Cr8   O18   S    
Cr9   O10   S    
Cr12  O27   S    
C17   C21   A    
C14   C127  S    
C108  C112  A    
C13   C24   A    
C46   C64   S    
C6    O47   A    
Cr4   O8    S    
C34   C38   A    
C68   C121  S    
C32   O51   D    
C109  H9    S    
C53   H46   S    
C46   C68   A    
C47   H40   S    
C63   O21   A    
C33   H70   S    
Cr2   O10   S    
C43   C65   A    
C69   O22   A    
C7    C91   S    
Cr11  O48   S    
C24   H39   S    
Cr5   O10   S    
C26   C27   A    
C38   C56   S    
Cr7   O13   S    
C75   C82   A    
C70   O24   A    
C55   H48   S    
Cr9   O24   S    
C117  O1    A    
C125  H30   S    
C69   O27   A    
Cr6   O42   S    
C74   H31   S    
C90   H2    S    
C124  H25   S    
C43   C60   S    
C93   C111  A    
C4    C94   S    
C114  C123  S    
C124  H29   S    
C60   H62   S    
C121  O34   A    
C10   C77   S    
C4    O40   A    
C66   C119  S    
C88   H6    S    
Cr9   O53   S    
C44   C61   S    
C72   O26   A    
C107  H35   S    
Cr6   O38   S    
C76   C80   A    
C120  O33   A    
C4    O44   A    
C39   C44   A    
C15   O7    A    
C19   C29   A    
C117  O31   A    
C12   O5    A    
C115  C124  S    
C87   H3    S    
C19   C23   A    
C67   C120  S    
Cr4   O30   S    
C89   H7    S    
Cr11  O55   S    
Cr10  O47   S    
C35   C52   S    
C11   O55   A    
C122  H27   S    
C87   H5    S    
C75   C79   A    
C7    O43   A    
C83   H56   S    
Cr6   O23   S    
Cr8   O44   S    
C112  H13   S    
Cr5   O15   S    
Cr7   O39   S    
C80   C81   A    
C110  H10   S    
C70   O28   A    
C111  H11   S    
C42   C59   S    
C5    C93   S    
Cr4   O35   S    
C10   O54   A    
C45   C67   A    
C15   O38   A    
C1    C37   S    
C9    O2    A    
Cr10  O54   S    
C64   H65   S    
C57   H54   S    
C50   C55   A    
C122  H22   S    
Cr11  O13   S    
C115  H20   S    
C116  C125  S    
C30   O49   D    
Cr7   O43   S    
C56   H53   S    
Cr12  O31   S    
C114  H15   S    
Cr10  O20   S    
C125  H26   S    
C89   C90   S    
C62   H60   S    
C38   C43   A    
C59   C64   S    
C12   O36   A    
Cr4   O13   S    
C61   H63   S    
C123  H24   S    
C78   C79   A    
C84   H67   S    
C92   C110  A    
C98   C115  S    
C48   H41   S    
C9    O53   A    
Cr10  O11   S    
C18   C69   S    
C6    C92   S    
C35   C39   A    
C21   C74   A    
C94   C112  A    
C34   C63   S    
C101  C127  A    
C73   C83   A    
C16   O8    A    
C100  C122  S    
C23   C25   A    
Cr1   O1    S    
Cr12  O9    S    
C77   C81   A    
C114  H19   S    
Cr1   O40   S    
C36   C54   A    
C8    C75   S    
C91   C95   A    
C49   H42   S    
C37   C55   A    
C56   C60   S    
Cr12  O5    S    
C116  H17   S    
C104  C126  A    
C13   C74   A    
C82   C83   A    
Cr7   O17   S    
C76   C86   A    
C30   C104  S    
Cr8   O45   S    
C65   C117  S    
C14   O6    A    
C59   H50   S    
Cr3   O11   S    
C48   C66   A    
C97   C114  S    
C21   C22   A    
C103  C125  S    
C50   C68   A    
C93   C98   A    
C47   C65   A    
C25   C107  A    
C97   C101  A    
C3    C16   S    
C13   H38   S    
C28   H23   S    
Cr6   O16   S    
C45   C62   S    
Cr1   O36   S    
C39   C57   S    
