data_str_m2_o1_o17_f0_pcu.sym.167
_audit_creation_date              2012-12-10T17:57:51-0500
_audit_creation_method            fapswitch 2.2
_symmetry_space_group_name_H-M    P1
_symmetry_Int_Tables_number       1
_space_group_crystal_system       triclinic
_cell_length_a                    10.822651
_cell_length_b                    9.867336
_cell_length_c                    14.875807
_cell_angle_alpha                 89.996295
_cell_angle_beta                  95.946345
_cell_angle_gamma                 89.960899
_cell_volume                      1580.05026461

loop_
_atom_site_label
_atom_site_type_symbol
_atom_type_description
_atom_site_fract_x
_atom_site_fract_y
_atom_site_fract_z
_atom_type_partial_charge
C1    C     C_R   0.263272 0.500360 0.501274 0.747499
C2    C     C_R   0.736715 0.500331 0.498702 0.750255
C3    C     C_R   0.272836 0.537007 0.028361 -0.030568
C4    C     C_R   0.722996 0.439910 0.971428 -0.017161
C5    C     C_R   0.063879 0.379472 0.502646 -0.182611
C6    C     C_R   0.935912 0.625015 0.500664 -0.176022
C7    C     C_R   0.935898 0.379607 0.495007 -0.188226
C8    C     C_R   0.064206 0.625029 0.501461 -0.183284
C9    C     C_R   0.870984 0.501748 0.497491 -0.012401
C10   C     C_R   0.128982 0.501713 0.502433 -0.012435
C11   C     C_R   0.438927 0.073369 0.428228 0.144514
C12   C     C_R   0.561791 0.925349 0.570599 0.137068
C13   C     C_R   0.561764 0.073093 0.571619 0.153774
C14   C     C_R   0.437934 0.925485 0.429360 0.143226
C15   C     C_R   0.499606 0.499326 0.329908 0.781783
C16   C     C_R   0.500350 0.499706 0.670114 0.786723
C17   C     C_R   0.608897 0.464582 0.820224 -0.250634
C18   C     C_R   0.387181 0.514893 0.179605 -0.232582
C19   C     C_R   0.500177 0.498084 0.766534 -0.058229
C20   C     C_R   0.498659 0.495257 0.233447 -0.078325
C21   C     C_R   0.390999 0.527675 0.804108 -0.236690
C22   C     C_R   0.607945 0.465652 0.196055 -0.224753
C23   C     C_R   0.389127 0.522429 0.897304 0.098023
C24   C     C_R   0.608178 0.462602 0.102688 0.093904
C25   C     C_R   0.499520 0.492407 0.952977 0.050493
C26   C     C_R   0.497040 0.488798 0.046890 0.045309
C27   C     C_R   0.612107 0.466348 0.914514 0.034448
C28   C     C_R   0.383932 0.512094 0.085288 0.046180
C29   C     C_R   0.277847 0.544902 0.934956 -0.261994
C30   C     C_R   0.718788 0.436721 0.064953 -0.241474
Cu1   Cu    Cu3+1 0.500000 0.640660 0.500000 0.914418
Cu2   Cu    Cu3+1 0.500000 0.359340 0.500000 0.923725
H1    H     H_    0.689872 0.438416 0.787115 0.161729
H2    H     H_    0.305143 0.536009 0.212833 0.165581
H3    H     H_    0.307262 0.551794 0.760410 0.135207
H4    H     H_    0.692879 0.447424 0.239904 0.130922
H5    H     H_    0.193476 0.565115 0.890963 0.189467
H6    H     H_    0.803283 0.417529 0.108976 0.168930
H7    H     H_    0.110781 0.283212 0.508814 0.142965
H8    H     H_    0.888006 0.721299 0.501944 0.149906
H9    H     H_    0.888790 0.283670 0.487056 0.142889
H10   H     H_    0.112247 0.721332 0.502013 0.150007
N1    N     N_R   0.500000 0.852070 0.500000 -0.204033
N2    N     N_R   0.500000 0.147930 0.500000 -0.188205
O1    O     O_R   0.319640 0.618740 0.499990 -0.598884
O2    O     O_R   0.680360 0.381260 0.500010 -0.591405
O3    O     O_R   0.680360 0.618740 0.500010 -0.596317
O4    O     O_R   0.319640 0.381260 0.499990 -0.589934
O5    O     O_R   0.499970 0.618800 0.370260 -0.589374
O6    O     O_R   0.500030 0.381200 0.629740 -0.582045
O7    O     O_R   0.500030 0.618800 0.629740 -0.588572
O8    O     O_R   0.499970 0.381200 0.370260 -0.580299
C31   C     C_2   0.149801 0.553665 0.062957 0.831193
O9    O     O_2   0.077720 0.640328 0.030308 -0.573681
O10   O     O_R   0.113914 0.467062 0.129937 -0.780567
H11   H     H_    0.028072 0.488796 0.147497 0.331248
C32   C     C_2   0.845859 0.419219 0.937350 0.844508
O11   O     O_2   0.879093 0.491840 0.877746 -0.607928
O12   O     O_R   0.926382 0.320136 0.976954 -0.752587
H12   H     H_    0.008057 0.316662 0.949230 0.338402
C33   C     C_3   0.375059 0.143844 0.342130 -0.343876
C34   C     C_3   0.252595 0.218174 0.351963 -0.312097
C35   C     C_3   0.149420 0.188279 0.275964 -0.865442
H13   H     H_    0.180880 0.214169 0.209313 0.294800
H14   H     H_    0.122920 0.079610 0.276472 0.247117
H15   H     H_    0.066174 0.250198 0.285915 0.261115
H16   H     H_    0.218626 0.185508 0.415911 0.223063
H17   H     H_    0.268356 0.328736 0.349271 0.248257
H18   H     H_    0.441335 0.196270 0.303452 0.200959
H19   H     H_    0.348437 0.075275 0.287624 0.197160
C36   C     C_3   0.637736 0.850715 0.647876 -0.321267
C37   C     C_3   0.574180 0.847950 0.737876 -0.365827
C38   C     C_3   0.668768 0.817301 0.818727 -0.787918
H20   H     H_    0.719782 0.722384 0.807036 0.281214
H21   H     H_    0.736493 0.901697 0.829636 0.253490
H22   H     H_    0.620453 0.805051 0.880560 0.249191
H23   H     H_    0.524722 0.943143 0.750838 0.189517
H24   H     H_    0.497788 0.774864 0.737554 0.253308
H25   H     H_    0.666845 0.749426 0.629095 0.239671
H26   H     H_    0.731151 0.897903 0.658780 0.155711
C39   C     C_3   0.629766 0.142819 0.656849 -0.352885
C40   C     C_3   0.753194 0.212961 0.644183 -0.312590
C41   C     C_3   0.858752 0.179335 0.717696 -0.894135
H27   H     H_    0.831647 0.206678 0.785395 0.271614
H28   H     H_    0.881803 0.069729 0.716554 0.253865
H29   H     H_    0.942959 0.238040 0.705515 0.263365
H30   H     H_    0.783070 0.179953 0.578917 0.226891
H31   H     H_    0.740249 0.323861 0.647894 0.242218
H32   H     H_    0.566670 0.198829 0.696090 0.198364
H33   H     H_    0.656453 0.074565 0.712277 0.193377
C42   C     C_3   0.358911 0.851494 0.352838 -0.331273
C43   C     C_3   0.417565 0.849164 0.260755 -0.364346
C44   C     C_3   0.317640 0.846789 0.179960 -0.829405
H34   H     H_    0.248285 0.766566 0.188910 0.257165
H35   H     H_    0.268188 0.945176 0.172102 0.256065
H36   H     H_    0.361214 0.826453 0.116916 0.253862
H37   H     H_    0.481467 0.935571 0.253753 0.197474
H38   H     H_    0.478866 0.762528 0.253511 0.253926
H39   H     H_    0.330864 0.749656 0.371265 0.234571
H40   H     H_    0.265997 0.900558 0.344392 0.160650

loop_
_geom_bond_atom_site_label_1
_geom_bond_atom_site_label_2
_ccdc_geom_bond_type
C33   H19   S    
O10   H11   S    
C35   H14   S    
C44   H34   S    
Cu2   O4    S    
C38   H20   S    
C16   O7    A    
C6    C9    A    
C36   H25   S    
C39   C40   S    
C43   H38   S    
C31   O9    D    
C2    O2    A    
C15   O5    A    
C37   H23   S    
Cu1   N1    S    
C34   H16   S    
C23   C29   A    
C3    C28   A    
C19   C21   A    
C24   C26   A    
C12   N1    A    
C11   C14   A    
C32   O12   S    
C40   H30   S    
C13   C39   S    
C30   H6    S    
C3    C29   A    
Cu2   O8    S    
C37   H24   S    
Cu1   Cu2   S    
C4    C32   S    
C42   H40   S    
C18   C20   A    
C39   H32   S    
C23   C25   A    
C35   H15   S    
O12   H12   S    
C44   H35   S    
Cu1   O3    S    
C38   H21   S    
C17   H1    S    
Cu1   O5    S    
C36   H26   S    
C43   H37   S    
C31   O10   S    
C15   C20   S    
C17   C27   A    
C18   C28   A    
Cu1   O7    S    
C42   C43   S    
C5    C7    A    
C6    C8    A    
C25   C26   A    
C34   C35   S    
C41   H27   S    
Cu2   N2    S    
C11   N2    A    
C15   O8    A    
C18   H2    S    
Cu2   O6    S    
C39   H33   S    
C41   H28   S    
C12   C36   S    
C20   C22   A    
C44   H36   S    
C21   C23   A    
C38   H22   S    
C22   C24   A    
C4    C27   A    
C33   H18   S    
C7    C9    A    
Cu2   O2    S    
C1    C10   S    
C8    H10   S    
C37   C38   S    
C11   C33   S    
C1    O4    A    
C21   H3    S    
C2    O3    A    
C25   C27   A    
C22   H4    S    
C26   C28   A    
C34   H17   S    
C5    H7    S    
C5    C10   A    
C3    C31   S    
C1    O1    A    
C32   O11   D    
C16   C19   S    
C40   H31   S    
C43   C44   S    
C17   C19   A    
C6    H8    S    
C7    H9    S    
C33   C34   S    
C16   O6    A    
C24   C30   A    
C14   C42   S    
C35   H13   S    
C36   C37   S    
C41   H29   S    
C12   C13   A    
C8    C10   A    
C40   C41   S    
Cu1   O1    S    
C29   H5    S    
C42   H39   S    
C2    C9    S    
C13   N2    A    
C4    C30   A    
C14   N1    A    
