data_str_m3_o5_o28_f0_pcu.sym.57
_audit_creation_date              2013-03-05T16:48:16-0500
_audit_creation_method            fapswitch 2.2
_symmetry_space_group_name_H-M    P1
_symmetry_Int_Tables_number       1
_space_group_crystal_system       triclinic
_cell_length_a                    23.486201
_cell_length_b                    8.916047
_cell_length_c                    8.094855
_cell_angle_alpha                 89.948365
_cell_angle_beta                  89.981048
_cell_angle_gamma                 89.828623
_cell_volume                      1695.08723672

loop_
_atom_site_label
_atom_site_type_symbol
_atom_site_description
_atom_site_fract_x
_atom_site_fract_y
_atom_site_fract_z
_atom_type_partial_charge
O1    O     O_R   0.500000 0.285350 0.636850 -0.618826
O2    O     O_R   0.500000 0.714650 0.363150 -0.619442
O3    O     O_R   0.500000 0.714650 0.636850 -0.610785
O4    O     O_R   0.500000 0.285350 0.363150 -0.614352
C1    C     C_R   0.500046 0.217981 0.500042 0.930899
C2    C     C_R   0.499999 0.782020 0.499956 0.940573
O5    O     O_R   0.416160 0.500000 0.636910 -0.604828
O6    O     O_R   0.583840 0.500000 0.363090 -0.604708
O7    O     O_R   0.583840 0.500000 0.636910 -0.602293
O8    O     O_R   0.416160 0.500000 0.363090 -0.604726
C3    C     C_R   0.208229 0.505803 0.500548 0.293874
C4    C     C_R   0.791523 0.492541 0.498603 0.283199
C5    C     C_R   0.389047 0.500499 0.500027 0.911603
C6    C     C_R   0.610892 0.499238 0.499969 0.897149
Zn1   Zn    Zn3+2 0.500000 0.500000 0.682780 1.010266
Zn2   Zn    Zn3+2 0.500000 0.500000 0.317220 1.008636
H1    H     H_    0.214402 0.637321 0.722058 0.145795
H2    H     H_    0.785513 0.348030 0.287861 0.143233
H3    H     H_    0.213551 0.373671 0.279191 0.145015
H4    H     H_    0.786386 0.637501 0.710062 0.147488
C7    C     C_R   0.297018 0.578723 0.626505 0.024864
C8    C     C_R   0.702504 0.411523 0.379000 0.035447
C9    C     C_R   0.296524 0.428430 0.373545 0.025509
C10   C     C_R   0.703375 0.577296 0.620430 0.032014
C11   C     C_R   0.326833 0.502473 0.500080 -0.043631
C12   C     C_R   0.673008 0.495965 0.499849 -0.056809
C13   C     C_R   0.879110 0.614056 0.430206 0.515963
C14   C     C_R   0.120689 0.383771 0.567811 0.514787
C15   C     C_R   0.880506 0.374372 0.561716 0.529401
C16   C     C_R   0.119288 0.623813 0.437101 0.529099
N1    N     N_R   0.852082 0.493372 0.496316 -0.349625
N2    N     N_R   0.147695 0.504767 0.502387 -0.350077
C17   C     C_R   0.940345 0.372946 0.564644 -0.056044
C18   C     C_R   0.059453 0.624946 0.433513 -0.056396
C19   C     C_R   0.939061 0.620516 0.428775 -0.059752
C20   C     C_R   0.060740 0.377216 0.569056 -0.059523
C21   C     C_R   0.969814 0.497856 0.497852 -0.081518
C22   C     C_R   0.029986 0.499946 0.500123 -0.081405
C23   C     C_R   0.971082 0.251318 0.633164 0.127280
C24   C     C_R   0.028721 0.746360 0.364536 0.127090
C25   C     C_R   0.969183 0.744409 0.361431 0.038161
C26   C     C_R   0.030622 0.253153 0.636020 0.037931
C27   C     C_1   0.500047 0.065220 0.500058 -0.187102
C28   C     C_1   0.500030 0.934783 0.499934 -0.184673
C29   C     C_R   0.237703 0.579451 0.625599 -0.157131
C30   C     C_R   0.761941 0.411378 0.379456 -0.139314
C31   C     C_R   0.237232 0.430979 0.374969 -0.156961
C32   C     C_R   0.762633 0.574631 0.618786 -0.154282
N3    N     N_1   0.500000 0.500000 0.073640 -0.024776
N4    N     N_1   0.500000 0.500000 0.926360 -0.025157
O9    O     O_2   0.847260 0.726120 0.366632 -0.577011
O10   O     O_2   0.152560 0.271456 0.630765 -0.577135
O11   O     O_2   0.850285 0.258972 0.624248 -0.532367
O12   O     O_2   0.149521 0.739635 0.375585 -0.531277
N5    N     N_3   0.941941 0.124108 0.701727 -0.373146
H5    H     H_    0.955354 0.027504 0.639551 0.193418
H6    H     H_    0.953109 0.113826 0.826300 0.200992
N6    N     N_3   0.057868 0.873348 0.295490 -0.373123
H7    H     H_    0.044376 0.970218 0.357013 0.193738
H8    H     H_    0.046798 0.883001 0.170797 0.200708
N7    N     N_3   0.941147 0.871101 0.287275 -0.470274
H9    H     H_    0.915644 0.925071 0.374879 0.247137
H10   H     H_    0.917287 0.835787 0.185598 0.239672
N8    N     N_3   0.058665 0.126190 0.709583 -0.470110
H11   H     H_    0.082551 0.161135 0.811361 0.239432
H12   H     H_    0.084144 0.072529 0.621694 0.247863
N9    N     N_3   0.326762 0.658211 0.753673 -0.430118
H13   H     H_    0.314289 0.614101 0.867788 0.195127
H14   H     H_    0.313925 0.770554 0.749610 0.196424
N10   N     N_3   0.672018 0.324345 0.258772 -0.420249
H15   H     H_    0.652436 0.235854 0.321540 0.183740
H16   H     H_    0.700154 0.275877 0.173921 0.192802
N11   N     N_3   0.325721 0.347292 0.246161 -0.429840
H17   H     H_    0.312230 0.235692 0.250307 0.197294
H18   H     H_    0.313440 0.392109 0.132136 0.194851
N12   N     N_3   0.674187 0.665894 0.741667 -0.430237
H19   H     H_    0.687676 0.777013 0.729404 0.195071
H20   H     H_    0.686492 0.628001 0.858660 0.205476

loop_
_geom_bond_atom_site_label_1
_geom_bond_atom_site_label_2
_geom_bond_distance
_ccdc_geom_bond_type
N5    H5    1.045698 S    
N11   H17   1.045663 S    
C20   C26   1.421653 A    
C25   N7    1.436824 S    
C4    C32   1.392994 A    
O3    C2    1.259994 A    
C16   O12   1.349742 S    
C17   C23   1.413968 A    
C18   C24   1.413901 A    
N12   H20   1.045745 S    
C19   C21   1.422960 A    
C10   C12   1.411412 A    
H3    C31   1.083616 S    
N6    H8    1.045814 S    
Zn2   N3    1.971745 S    
C15   C17   1.405601 A    
Zn1   N4    1.971745 S    
N7    H10   1.045190 S    
C3    C31   1.393003 A    
C23   N5    1.437398 S    
N10   H15   1.045689 S    
O1    Zn1   1.949938 S    
O2    Zn2   1.949937 S    
O5    Zn1   2.003910 S    
C1    C27   1.362020 S    
O6    Zn2   2.003907 S    
C2    C28   1.362044 S    
C7    N9    1.433432 S    
N11   H18   1.045774 S    
C5    C11   1.461233 S    
O2    C2    1.260315 A    
C9    N11   1.433440 S    
H2    C30   1.083444 S    
C13   O9    1.348185 S    
C23   C26   1.398714 A    
C7    C29   1.393094 A    
C24   N6    1.437422 S    
C16   C18   1.405598 A    
C13   N1    1.360146 A    
N9    H13   1.045775 S    
C10   C32   1.391948 A    
C14   N2    1.359941 A    
C9    C31   1.392708 A    
N12   H19   1.045689 S    
C4    C30   1.393311 A    
O7    C6    1.277515 A    
C10   N12   1.433453 S    
C13   C19   1.409412 A    
N6    H7    1.045680 S    
C17   C21   1.419495 A    
N9    H14   1.045677 S    
N8    H12   1.044878 S    
O4    Zn2   1.949280 S    
C27   C28   1.162985 T    
C21   C22   1.413521 A    
C6    C12   1.459071 S    
H4    C32   1.083621 S    
C24   C25   1.398725 A    
C8    C30   1.395947 A    
C3    N2    1.421837 S    
N5    H6    1.045910 S    
C4    N1    1.422450 S    
O1    C1    1.260324 A    
C3    C29   1.392648 A    
C26   N8    1.436807 S    
O3    Zn1   1.949280 S    
C7    C11   1.413427 A    
O6    C6    1.277437 A    
C18   C22   1.419544 A    
H1    C29   1.083585 S    
O4    C1    1.259974 A    
O8    C5    1.278195 A    
N8    H11   1.045158 S    
C20   C22   1.423010 A    
O7    Zn1   2.003666 S    
C15   N1    1.358920 A    
O8    Zn2   2.003668 S    
C16   N2    1.358684 A    
C14   O10   1.348192 S    
C15   O11   1.349772 S    
C9    C11   1.412864 A    
N7    H9    1.044899 S    
C19   C25   1.421698 A    
O5    C5    1.278168 A    
C14   C20   1.409394 A    
N3    N4    1.192209 T    
C8    C12   1.414741 A    
N10   H16   1.045802 S    
C8    N10   1.438460 S    
