data_str_m2_o10_o29_f0_pcu.sym.165
_audit_creation_date              2012-12-10T16:51:15-0500
_audit_creation_method            fapswitch 2.2
_symmetry_space_group_name_H-M    P1
_symmetry_Int_Tables_number       1
_space_group_crystal_system       triclinic
_cell_length_a                    27.777572
_cell_length_b                    8.722972
_cell_length_c                    7.416074
_cell_angle_alpha                 102.248428
_cell_angle_beta                  94.044458
_cell_angle_gamma                 92.441459
_cell_volume                      1748.60330737

loop_
_atom_site_label
_atom_site_type_symbol
_atom_type_description
_atom_site_fract_x
_atom_site_fract_y
_atom_site_fract_z
_atom_type_partial_charge
C1    C     C_R   0.496899 0.200658 0.455532 0.887730
C2    C     C_R   0.503101 0.799342 0.544468 0.887729
C3    C     C_R   0.102258 0.498756 0.515260 -0.043321
C4    C     C_R   0.897725 0.500969 0.484640 -0.043311
C5    C     C_R   0.125243 0.355785 0.479834 -0.020444
C6    C     C_R   0.874740 0.643943 0.519978 -0.020502
C7    C     C_R   0.097397 0.214085 0.439482 -0.151335
C8    C     C_R   0.902585 0.785641 0.560274 -0.151309
C9    C     C_R   0.130752 0.641194 0.557270 -0.021123
C10   C     C_R   0.869233 0.358528 0.442730 -0.021185
C11   C     C_R   0.354651 0.499307 0.508964 -0.037136
C12   C     C_R   0.645351 0.500580 0.491019 -0.037075
C13   C     C_R   0.971532 0.354742 0.456494 0.044105
C14   C     C_R   0.028451 0.644982 0.543423 0.044104
C15   C     C_R   0.977145 0.645550 0.534787 0.045287
C16   C     C_R   0.022839 0.354174 0.465077 0.045287
C17   C     C_R   0.949034 0.500421 0.491878 0.068312
C18   C     C_R   0.050950 0.499303 0.508014 0.068303
C19   C     C_R   0.941595 0.214072 0.413096 -0.215078
C20   C     C_R   0.058388 0.785651 0.586906 -0.215107
C21   C     C_R   0.891598 0.216338 0.406705 -0.143619
C22   C     C_R   0.108385 0.783384 0.593344 -0.143633
C23   C     C_R   0.407487 0.499822 0.502757 0.792435
C24   C     C_R   0.592513 0.500156 0.497240 0.792463
C25   C     C_R   0.047330 0.212882 0.432388 -0.213347
C26   C     C_R   0.952653 0.786843 0.567397 -0.213317
C27   C     C_2   0.488089 0.035652 0.438877 -0.035840
C28   C     C_2   0.511911 0.964348 0.561122 -0.035932
C29   C     C_R   0.175865 0.357951 0.484518 0.535276
C30   C     C_R   0.824117 0.641778 0.515289 0.535412
C31   C     C_R   0.181273 0.638073 0.560863 0.538590
C32   C     C_R   0.818713 0.361651 0.439170 0.538625
C33   C     C_R   0.274471 0.475388 0.349300 -0.102092
C34   C     C_R   0.725500 0.521864 0.650461 -0.102215
C35   C     C_R   0.324494 0.476501 0.343930 -0.210726
C36   C     C_R   0.675478 0.520860 0.655843 -0.210486
C37   C     C_R   0.333813 0.521168 0.679364 -0.213709
C38   C     C_R   0.666217 0.481147 0.320817 -0.213335
C39   C     C_R   0.283705 0.520558 0.684280 -0.099646
C40   C     C_R   0.716322 0.481720 0.315889 -0.099591
C41   C     C_R   0.254009 0.497512 0.519249 0.364347
C42   C     C_R   0.745984 0.502218 0.480710 0.364886
Cu1   Cu    Cu3+1 0.505380 0.517380 0.684380 0.944574
Cu2   Cu    Cu3+1 0.494620 0.482620 0.315620 0.944594
H1    H     H_    0.356150 0.539003 0.808654 0.158470
H2    H     H_    0.643906 0.465338 0.191684 0.158086
H3    H     H_    0.267916 0.537764 0.815995 0.134428
H4    H     H_    0.732136 0.466450 0.184323 0.133808
H5    H     H_    0.114217 0.102553 0.412353 0.186112
H6    H     H_    0.885764 0.897172 0.587344 0.186074
H7    H     H_    0.660479 0.536062 0.788977 0.157950
H8    H     H_    0.339473 0.459331 0.210646 0.158173
H9    H     H_    0.748421 0.537354 0.778099 0.135481
H10   H     H_    0.251528 0.457932 0.221494 0.135989
H11   H     H_    0.870472 0.105224 0.373419 0.192820
H12   H     H_    0.129512 0.894500 0.626697 0.192834
H13   H     H_    0.955338 0.098847 0.382634 0.137813
H14   H     H_    0.044646 0.900876 0.617422 0.137843
H15   H     H_    0.029127 0.097966 0.400362 0.134855
H16   H     H_    0.970856 0.901757 0.599364 0.134826
N1    N     N_R   0.202613 0.497805 0.523569 -0.473827
N2    N     N_R   0.797374 0.501923 0.476357 -0.473926
N3    N     N_2   0.486510 0.456430 0.038510 -0.220904
N4    N     N_2   0.513490 0.543570 0.961490 -0.220929
O1    O     O_R   0.503500 0.286120 0.619780 -0.592746
O2    O     O_R   0.496500 0.713880 0.380220 -0.592726
O3    O     O_R   0.494410 0.256780 0.308360 -0.580947
O4    O     O_R   0.505590 0.743220 0.691640 -0.580955
O5    O     O_R   0.434810 0.514700 0.655690 -0.591099
O6    O     O_R   0.565190 0.485300 0.344310 -0.591076
O7    O     O_R   0.425720 0.485350 0.344280 -0.587035
O8    O     O_R   0.574280 0.514650 0.655720 -0.587044
O9    O     O_2   0.198232 0.221617 0.449948 -0.516354
O10   O     O_2   0.801746 0.778105 0.549809 -0.516172
O11   O     O_2   0.791110 0.225787 0.400687 -0.513587
O12   O     O_2   0.208871 0.773946 0.599415 -0.513787
H17   H     H_    0.462536 0.378227 0.948600 0.227571
H18   H     H_    0.537464 0.621772 0.051400 0.227518
C43   C     C_3   0.447957 0.955316 0.295229 -0.823718
H19   H     H_    0.426629 0.042139 0.239128 0.228334
H20   H     H_    0.463463 0.878970 0.176578 0.260986
H21   H     H_    0.422138 0.885425 0.358148 0.231701
C44   C     C_3   0.552043 0.044685 0.704770 -0.823564
H22   H     H_    0.573372 0.957862 0.760870 0.228417
H23   H     H_    0.577862 0.114576 0.641851 0.231667
H24   H     H_    0.536538 0.121030 0.823421 0.260989

loop_
_geom_bond_atom_site_label_1
_geom_bond_atom_site_label_2
_ccdc_geom_bond_type
Cu1   O8    S    
C8    C26   A    
C31   N1    A    
Cu2   O2    S    
C34   C42   A    
C41   N1    S    
C32   O11   S    
C24   O6    A    
C39   C41   A    
C19   H13   S    
Cu2   O7    S    
C39   H3    S    
C19   C21   A    
C27   C43   S    
C30   O10   S    
C9    C22   A    
C29   O9    S    
C33   H10   S    
C3    C18   A    
C40   H4    S    
C11   C37   A    
C23   O5    A    
C1    O3    A    
C2    O4    A    
Cu1   O4    S    
C1    O1    A    
Cu2   O6    S    
C12   C36   A    
C42   N2    S    
C40   C42   A    
Cu2   N3    S    
C28   C44   S    
Cu1   N4    S    
C5    C29   A    
C10   C21   A    
C29   N1    A    
C13   C19   A    
C14   C20   A    
C7    H5    S    
C4    C6    A    
C21   H11   S    
C15   C26   A    
C6    C8    A    
C3    C5    A    
C43   H19   S    
Cu1   Cu2   S    
C3    C9    A    
C23   O7    A    
C44   H22   S    
Cu1   O1    S    
C36   H7    S    
C4    C17   A    
C44   H23   S    
C20   C22   A    
C30   N2    A    
C20   H14   S    
C8    H6    S    
C35   H8    S    
C24   O8    A    
C5    C7    A    
N3    H17   S    
C16   C25   A    
C15   C17   A    
C6    C30   A    
N4    H18   S    
C14   C18   A    
C4    C10   A    
C2    O2    A    
C43   H21   S    
C22   H12   S    
C12   C24   S    
C43   H20   S    
C7    C25   A    
C13   C17   A    
C33   C41   A    
C11   C35   A    
C32   N2    A    
C37   C39   A    
C38   C40   A    
C31   O12   S    
C26   H16   S    
C11   C23   S    
C33   C35   A    
C34   C36   A    
C12   C38   A    
C38   H2    S    
C9    C31   A    
N3    N4    D    
C10   C32   A    
C44   H24   S    
C34   H9    S    
C16   C18   A    
C13   C16   A    
C27   C28   D    
C1    C27   S    
C14   C15   A    
Cu2   O3    S    
C2    C28   S    
C25   H15   S    
Cu1   O5    S    
C37   H1    S    
