data_str_m4_o15_o24_f0_acs.sym.119
_audit_creation_date              2012-12-11T14:28:15-0500
_audit_creation_method            fapswitch 2.2
_symmetry_space_group_name_H-M    P1
_symmetry_Int_Tables_number       1
_space_group_crystal_system       triclinic
_cell_length_a                    10.755178
_cell_length_b                    19.484604
_cell_length_c                    18.62488
_cell_angle_alpha                 90.100974
_cell_angle_beta                  89.596754
_cell_angle_gamma                 89.54427
_cell_volume                      3902.81043224

loop_
_atom_site_label
_atom_site_type_symbol
_atom_type_description
_atom_site_fract_x
_atom_site_fract_y
_atom_site_fract_z
_atom_type_partial_charge
C1    C     C_R   0.314394 0.936954 0.636572 0.554516
C2    C     C_R   0.318728 0.970003 0.853703 0.569940
C3    C     C_R   0.313034 0.064915 0.362744 0.558359
C4    C     C_R   0.322209 0.029895 0.146587 0.597717
C5    C     C_R   0.814394 0.436954 0.636572 0.554516
C6    C     C_R   0.818729 0.470004 0.853702 0.569936
C7    C     C_R   0.813034 0.564915 0.362744 0.558361
C8    C     C_R   0.822210 0.529895 0.146586 0.597719
C9    C     C_3   0.178800 0.738209 0.452146 -0.131464
C10   C     C_3   0.202769 0.762799 0.045435 -0.131499
C11   C     C_3   0.178311 0.292705 0.525972 -0.125396
C12   C     C_3   0.181973 0.291315 0.971171 -0.114644
C13   C     C_3   0.678800 0.238209 0.452146 -0.131463
C14   C     C_3   0.702778 0.262805 0.045432 -0.131509
C15   C     C_3   0.678312 0.792705 0.525972 -0.125396
C16   C     C_3   0.681870 0.791400 0.971198 -0.114570
C17   C     C_3   0.040005 0.732654 0.436017 0.038468
C18   C     C_3   0.072459 0.744155 0.070018 0.056684
C19   C     C_3   0.073790 0.259482 0.569756 0.044690
C20   C     C_3   0.076718 0.257178 0.929506 0.058627
C21   C     C_3   0.540004 0.232654 0.436017 0.038469
C22   C     C_3   0.572470 0.244159 0.070021 0.056695
C23   C     C_3   0.573790 0.759482 0.569756 0.044690
C24   C     C_3   0.576742 0.757176 0.929503 0.058605
C25   C     C_R   0.310160 0.041982 0.437254 -0.038603
C26   C     C_R   0.333980 0.995228 0.076080 -0.005432
C27   C     C_R   0.310983 0.962173 0.562043 -0.034643
C28   C     C_R   0.320179 0.003011 0.925483 -0.014454
C29   C     C_R   0.810160 0.541982 0.437254 -0.038603
C30   C     C_R   0.833985 0.495229 0.076078 -0.005414
C31   C     C_R   0.810983 0.462172 0.562043 -0.034643
C32   C     C_R   0.820184 0.503014 0.925481 -0.014486
C33   C     C_R   0.543496 0.040955 0.441614 -0.095065
C34   C     C_R   0.563175 0.004643 0.066435 -0.098272
C35   C     C_R   0.539053 0.948586 0.549765 -0.095713
C36   C     C_R   0.542314 0.029372 0.919666 -0.074130
C37   C     C_R   0.043496 0.540955 0.441614 -0.095066
C38   C     C_R   0.063183 0.504651 0.066432 -0.098282
C39   C     C_R   0.039053 0.448586 0.549765 -0.095713
C40   C     C_R   0.042315 0.529377 0.919661 -0.074125
C41   C     C_R   0.653865 0.012201 0.464090 -0.131408
C42   C     C_R   0.667866 0.021623 0.025961 -0.139828
C43   C     C_R   0.652084 0.966065 0.519255 -0.131717
C44   C     C_R   0.656844 0.035296 0.952909 -0.126590
C45   C     C_R   0.153865 0.512201 0.464090 -0.131408
C46   C     C_R   0.167872 0.521631 0.025955 -0.139857
C47   C     C_R   0.152084 0.466065 0.519255 -0.131716
C48   C     C_R   0.156846 0.535302 0.952903 -0.126574
C49   C     C_R   0.424260 0.976618 0.526995 -0.014855
C50   C     C_R   0.435556 0.011192 0.959460 -0.020386
C51   C     C_R   0.425055 0.020295 0.468130 -0.016500
C52   C     C_R   0.444181 0.003242 0.034739 -0.031274
C53   C     C_R   0.924260 0.476618 0.526995 -0.014855
C54   C     C_R   0.935560 0.511195 0.959457 -0.020389
C55   C     C_R   0.925055 0.520296 0.468130 -0.016500
C56   C     C_R   0.944187 0.503246 0.034736 -0.031247
C57   C     C_R   0.193458 0.984664 0.532304 0.006331
C58   C     C_R   0.209297 0.999840 0.968177 -0.012953
C59   C     C_R   0.191574 0.029180 0.472920 0.001905
C60   C     C_R   0.220801 0.982331 0.041170 -0.004605
C61   C     C_R   0.693458 0.484664 0.532304 0.006331
C62   C     C_R   0.709304 0.499847 0.968176 -0.012993
C63   C     C_R   0.691575 0.529180 0.472920 0.001905
C64   C     C_R   0.720807 0.482333 0.041168 -0.004602
C65   C     C_R   0.074666 0.965219 0.561580 0.275583
C66   C     C_R   0.087065 0.007800 0.939760 0.253935
C67   C     C_R   0.068148 0.055725 0.453083 0.257321
C68   C     C_R   0.116642 0.955869 0.079144 0.268639
C69   C     C_R   0.574667 0.465219 0.561580 0.275583
C70   C     C_R   0.587076 0.507821 0.939761 0.253951
C71   C     C_R   0.568148 0.555725 0.453084 0.257320
C72   C     C_R   0.616644 0.455873 0.079139 0.268632
C73   C     C_R   0.973306 0.008421 0.557206 -0.148776
C74   C     C_R   0.984449 0.985722 0.979909 -0.164558
C75   C     C_R   0.968765 0.052019 0.501538 -0.175716
C76   C     C_R   0.998649 0.960117 0.048590 -0.159292
C77   C     C_R   0.473306 0.508420 0.557206 -0.148776
C78   C     C_R   0.484454 0.485750 0.979911 -0.164517
C79   C     C_R   0.468766 0.552019 0.501538 -0.175717
C80   C     C_R   0.498650 0.460134 0.048587 -0.159296
C81   C     C_R   0.176817 0.769024 0.635458 0.556700
C82   C     C_R   0.177737 0.769330 0.863737 0.549798
C83   C     C_R   0.132745 0.241745 0.356265 0.534260
C84   C     C_R   0.134249 0.241765 0.143489 0.539225
C85   C     C_R   0.676817 0.269024 0.635458 0.556701
C86   C     C_R   0.677736 0.269330 0.863737 0.549817
C87   C     C_R   0.632746 0.741745 0.356265 0.534258
C88   C     C_R   0.634237 0.741767 0.143492 0.539205
C89   C     C_R   0.543821 0.770405 0.644921 0.530002
C90   C     C_R   0.544592 0.769792 0.854688 0.549745
C91   C     C_R   0.501189 0.214935 0.363402 0.522129
C92   C     C_R   0.538799 0.228442 0.143317 0.568514
C93   C     C_R   0.043821 0.270405 0.644921 0.530004
C94   C     C_R   0.044585 0.269794 0.854690 0.549753
C95   C     C_R   0.001189 0.714935 0.363402 0.522129
C96   C     C_R   0.038792 0.728439 0.143314 0.568511
C97   C     C_3   0.012103 0.798673 0.477883 -0.078568
C98   C     C_3   0.012382 0.797137 0.019985 -0.106123
C99   C     C_3   0.091013 0.191199 0.531981 -0.100939
C100  C     C_3   0.094324 0.189599 0.969518 -0.133099
C101  C     C_3   0.512102 0.298672 0.477883 -0.078571
C102  C     C_3   0.512386 0.297140 0.019988 -0.106111
C103  C     C_3   0.591013 0.691199 0.531981 -0.100939
C104  C     C_3   0.594515 0.689604 0.969506 -0.133101
C105  C     C_3   0.152022 0.804121 0.495273 -0.095505
C106  C     C_3   0.144616 0.816165 0.994031 -0.110804
C107  C     C_3   0.195620 0.223732 0.486761 -0.102200
C108  C     C_3   0.199922 0.223199 0.012311 -0.121385
C109  C     C_3   0.652021 0.304121 0.495273 -0.095505
C110  C     C_3   0.644618 0.316169 0.994028 -0.110800
C111  C     C_3   0.695621 0.723732 0.486761 -0.102200
C112  C     C_3   0.699983 0.723294 0.012329 -0.121466
C113  C     C_3   0.130756 0.759625 0.562337 0.084250
C114  C     C_3   0.135646 0.760459 0.936934 0.050712
C115  C     C_3   0.098308 0.246869 0.431596 0.074141
C116  C     C_3   0.103133 0.247657 0.068013 0.059701
C117  C     C_3   0.630755 0.259625 0.562337 0.084250
C118  C     C_3   0.635644 0.260461 0.936934 0.050726
C119  C     C_3   0.598308 0.746869 0.431596 0.074142
C120  C     C_3   0.603098 0.747660 0.068017 0.059673
C121  C     C_3   0.992132 0.754684 0.546188 -0.100805
C122  C     C_3   0.004576 0.741609 0.961073 -0.129848
C123  C     C_3   0.994018 0.214060 0.475348 -0.090880
C124  C     C_3   0.998661 0.213586 0.026631 -0.134354
C125  C     C_3   0.492131 0.254684 0.546188 -0.100808
C126  C     C_3   0.504576 0.241610 0.961078 -0.129842
C127  C     C_3   0.494018 0.714060 0.475348 -0.090880
C128  C     C_3   0.498752 0.713499 0.026606 -0.134222
C129  C     C_3   0.018837 0.688728 0.503170 -0.160067
C130  C     C_3   0.062052 0.688438 0.012339 -0.116531
C131  C     C_3   0.976752 0.282871 0.514617 -0.134528
C132  C     C_3   0.980900 0.281990 0.985542 -0.114217
C133  C     C_3   0.518837 0.188727 0.503170 -0.160067
C134  C     C_3   0.562060 0.188441 0.012342 -0.116524
C135  C     C_3   0.476753 0.782871 0.514617 -0.134528
C136  C     C_3   0.480828 0.781896 0.985525 -0.114259
C137  C     C_3   0.158315 0.693876 0.519726 -0.117314
C138  C     C_3   0.193977 0.706949 0.986946 -0.116171
C139  C     C_3   0.081555 0.315301 0.469684 -0.129371
C140  C     C_3   0.086442 0.315619 0.028015 -0.108172
C141  C     C_3   0.658315 0.193876 0.519726 -0.117314
C142  C     C_3   0.693982 0.206954 0.986945 -0.116169
C143  C     C_3   0.581556 0.815301 0.469684 -0.129371
C144  C     C_3   0.586241 0.815612 0.028028 -0.108220
Cr1   Cr    Cr6+3 0.488160 0.884660 0.750000 0.995471
Cr2   Cr    Cr6+3 0.488160 0.115340 0.250000 0.991975
Cr3   Cr    Cr6+3 0.988160 0.384660 0.750000 0.995478
Cr4   Cr    Cr6+3 0.988160 0.615340 0.250000 0.991974
Cr5   Cr    Cr6+3 0.173480 0.883120 0.750000 1.056128
Cr6   Cr    Cr6+3 0.173480 0.116880 0.250000 1.062247
Cr7   Cr    Cr6+3 0.673480 0.383120 0.750000 1.056125
Cr8   Cr    Cr6+3 0.673480 0.616880 0.250000 1.062242
Cr9   Cr    Cr6+3 0.333410 0.727260 0.750000 1.012415
Cr10  Cr    Cr6+3 0.333410 0.272740 0.250000 1.008762
Cr11  Cr    Cr6+3 0.833410 0.227260 0.750000 1.012414
Cr12  Cr    Cr6+3 0.833410 0.772740 0.250000 1.008762
H1    H     H_    0.207531 0.851305 0.489736 0.127681
H2    H     H_    0.183784 0.865816 0.978320 0.117329
H3    H     H_    0.282161 0.197374 0.470228 0.086203
H4    H     H_    0.288375 0.197191 0.026614 0.111315
H5    H     H_    0.707530 0.351305 0.489737 0.127682
H6    H     H_    0.683777 0.365820 0.978314 0.117326
H7    H     H_    0.782161 0.697373 0.470228 0.086204
H8    H     H_    0.788481 0.697353 0.026665 0.111331
H9    H     H_    0.950559 0.841196 0.459838 0.136638
H10   H     H_    0.933333 0.830531 0.035948 0.124766
H11   H     H_    0.101514 0.143941 0.564361 0.127225
H12   H     H_    0.103190 0.139709 0.943319 0.179072
H13   H     H_    0.450558 0.341196 0.459838 0.136637
H14   H     H_    0.433345 0.330536 0.035957 0.124771
H15   H     H_    0.601514 0.643941 0.564361 0.127225
H16   H     H_    0.603630 0.639728 0.943297 0.179062
H17   H     H_    0.918637 0.760381 0.587853 0.120959
H18   H     H_    0.926820 0.732548 0.923475 0.122396
H19   H     H_    0.918258 0.184373 0.451598 0.109756
H20   H     H_    0.927988 0.180712 0.052769 0.115612
H21   H     H_    0.418636 0.260380 0.587853 0.120959
H22   H     H_    0.426820 0.232540 0.923481 0.122376
H23   H     H_    0.418258 0.684373 0.451598 0.109756
H24   H     H_    0.428133 0.680572 0.052717 0.115632
H25   H     H_    0.957875 0.644428 0.512000 0.112677
H26   H     H_    0.021179 0.637865 0.023443 0.147232
H27   H     H_    0.889652 0.308905 0.530884 0.083243
H28   H     H_    0.894797 0.309426 0.970179 0.105349
H29   H     H_    0.457875 0.144427 0.512000 0.112677
H30   H     H_    0.521193 0.137867 0.023448 0.147231
H31   H     H_    0.389652 0.808905 0.530885 0.083243
H32   H     H_    0.394690 0.809271 0.970121 0.105338
H33   H     H_    0.218891 0.650891 0.537370 0.133735
H34   H     H_    0.267054 0.669706 0.970216 0.128081
H35   H     H_    0.074583 0.363369 0.438219 0.150374
H36   H     H_    0.081682 0.366570 0.054226 0.130652
H37   H     H_    0.718890 0.150890 0.537370 0.133735
H38   H     H_    0.767051 0.169708 0.970208 0.128084
H39   H     H_    0.574583 0.863369 0.438219 0.150374
H40   H     H_    0.581292 0.866551 0.054255 0.130627
H41   H     H_    0.739584 0.025269 0.437330 0.105841
H42   H     H_    0.756671 0.026420 0.052091 0.113838
H43   H     H_    0.736951 0.941431 0.536328 0.101641
H44   H     H_    0.736081 0.052057 0.921752 0.104169
H45   H     H_    0.239585 0.525269 0.437331 0.105841
H46   H     H_    0.256678 0.526430 0.052082 0.113826
H47   H     H_    0.236951 0.441431 0.536328 0.101640
H48   H     H_    0.236079 0.552064 0.921743 0.104178
H49   H     H_    0.555437 0.082298 0.406154 0.175767
H50   H     H_    0.576828 0.991913 0.122310 0.139484
H51   H     H_    0.542586 0.907822 0.586176 0.182688
H52   H     H_    0.536741 0.042153 0.863232 0.138303
H53   H     H_    0.055437 0.582298 0.406154 0.175767
H54   H     H_    0.076839 0.491924 0.122307 0.139486
H55   H     H_    0.042586 0.407822 0.586176 0.182687
H56   H     H_    0.036738 0.542157 0.863227 0.138302
O1    O     O_R   0.575450 0.828820 0.667950 -0.556921
O2    O     O_R   0.575450 0.828820 0.832050 -0.515118
O3    O     O_R   0.575450 0.171180 0.332050 -0.548786
O4    O     O_R   0.575450 0.171180 0.167950 -0.518331
O5    O     O_R   0.075450 0.328820 0.667950 -0.556921
O6    O     O_R   0.075450 0.328820 0.832050 -0.515103
O7    O     O_R   0.075450 0.671180 0.332050 -0.548785
O8    O     O_R   0.075450 0.671180 0.167950 -0.518328
O9    O     O_R   0.416860 0.942890 0.674680 -0.515412
O10   O     O_R   0.416860 0.942890 0.825320 -0.511166
O11   O     O_R   0.416860 0.057110 0.325320 -0.531117
O12   O     O_R   0.416860 0.057110 0.174680 -0.522720
O13   O     O_R   0.916860 0.442890 0.674680 -0.515413
O14   O     O_R   0.916860 0.442890 0.825320 -0.511166
O15   O     O_R   0.916860 0.557110 0.325320 -0.531117
O16   O     O_R   0.916860 0.557110 0.174680 -0.522722
O17   O     O_R   0.213790 0.953680 0.668330 -0.457193
O18   O     O_R   0.213790 0.953680 0.831670 -0.454157
O19   O     O_R   0.213790 0.046320 0.331670 -0.421556
O20   O     O_R   0.213790 0.046320 0.168330 -0.462506
O21   O     O_R   0.713790 0.453680 0.668330 -0.457194
O22   O     O_R   0.713790 0.453680 0.831670 -0.454175
O23   O     O_R   0.713790 0.546320 0.331670 -0.421557
O24   O     O_R   0.713790 0.546320 0.168330 -0.462509
O25   O     O_R   0.121360 0.817890 0.672660 -0.464305
O26   O     O_R   0.121360 0.817890 0.827340 -0.503649
O27   O     O_R   0.121360 0.182110 0.327340 -0.467070
O28   O     O_R   0.121360 0.182110 0.172660 -0.509320
O29   O     O_R   0.621360 0.317890 0.672660 -0.464303
O30   O     O_R   0.621360 0.317890 0.827340 -0.503656
O31   O     O_R   0.621360 0.682110 0.327340 -0.467070
O32   O     O_R   0.621360 0.682110 0.172660 -0.509324
O33   O     O_R   0.206850 0.711370 0.665820 -0.519908
O34   O     O_R   0.206850 0.711370 0.834180 -0.518741
O35   O     O_R   0.206850 0.288630 0.334180 -0.534363
O36   O     O_R   0.206850 0.288630 0.165820 -0.529386
O37   O     O_R   0.706850 0.211370 0.665820 -0.519908
O38   O     O_R   0.706850 0.211370 0.834180 -0.518744
O39   O     O_R   0.706850 0.788630 0.334180 -0.534364
O40   O     O_R   0.706850 0.788630 0.165820 -0.529362
O41   O     O_R   0.457710 0.733190 0.672630 -0.510882
O42   O     O_R   0.457710 0.733190 0.827370 -0.509983
O43   O     O_R   0.457710 0.266810 0.327370 -0.487714
O44   O     O_R   0.457710 0.266810 0.172630 -0.507010
O45   O     O_R   0.957710 0.233190 0.672630 -0.510881
O46   O     O_R   0.957710 0.233190 0.827370 -0.510000
O47   O     O_R   0.957710 0.766810 0.327370 -0.487714
O48   O     O_R   0.957710 0.766810 0.172630 -0.507014
O49   O     O_3   0.331690 0.831680 0.750000 -0.317785
O50   O     O_3   0.331690 0.168320 0.250000 -0.305641
O51   O     O_3   0.831690 0.331680 0.750000 -0.317785
O52   O     O_3   0.831690 0.668320 0.250000 -0.305640
H57   H     H_    0.891305 0.001338 0.590264 0.105273
H58   H     H_    0.893381 0.986243 0.956705 0.102921
H59   H     H_    0.883801 0.080365 0.493474 0.091163
H60   H     H_    0.917662 0.942216 0.077626 0.095848
H61   H     H_    0.391305 0.501338 0.590264 0.105274
H62   H     H_    0.393386 0.486284 0.956709 0.102924
H63   H     H_    0.383801 0.580365 0.493475 0.091163
H64   H     H_    0.417658 0.442238 0.077622 0.095831
H65   H     H_    0.250707 0.733480 0.409522 0.131210
H66   H     H_    0.279099 0.772731 0.083736 0.130207
H67   H     H_    0.252830 0.324622 0.548905 0.099982
H68   H     H_    0.256593 0.322911 0.946875 0.121556
H69   H     H_    0.750706 0.233481 0.409522 0.131210
H70   H     H_    0.779097 0.272752 0.083735 0.130198
H71   H     H_    0.752831 0.824621 0.548905 0.099983
H72   H     H_    0.756421 0.823061 0.946923 0.121598
O53   O     O_3   0.039809 0.086379 0.389354 -0.648008
H73   H     H_    0.948983 0.085233 0.379953 0.298752
O54   O     O_3   0.134172 0.922960 0.144134 -0.681547
H74   H     H_    0.052946 0.906561 0.162560 0.328863
O55   O     O_3   0.056539 0.902238 0.590687 -0.690171
H75   H     H_    0.967965 0.895938 0.604638 0.309238
O56   O     O_3   0.068793 0.040655 0.874720 -0.689596
H76   H     H_    0.978563 0.043252 0.864269 0.312781
O57   O     O_3   0.539810 0.586379 0.389354 -0.648008
H77   H     H_    0.448983 0.585233 0.379953 0.298752
O58   O     O_3   0.634170 0.422956 0.144125 -0.681561
H78   H     H_    0.552943 0.406559 0.162547 0.328866
O59   O     O_3   0.556539 0.402238 0.590687 -0.690171
H79   H     H_    0.467964 0.395937 0.604634 0.309238
O60   O     O_3   0.568817 0.540685 0.874725 -0.689609
H80   H     H_    0.478587 0.543296 0.864276 0.312810

loop_
_geom_bond_atom_site_label_1
_geom_bond_atom_site_label_2
_ccdc_geom_bond_type
C6    C32   S    
C7    C29   S    
C18   C98   S    
C119  C143  S    
O58   H78   S    
C120  C144  S    
C110  C118  S    
C75   H59   S    
Cr5   O18   S    
C4    O20   A    
C16   C144  S    
C72   O58   S    
Cr8   O32   S    
C57   C59   A    
Cr1   O9    S    
C58   C60   A    
Cr6   O20   S    
C62   C70   A    
C1    O9    A    
C61   C63   A    
C91   O3    A    
C5    O21   A    
C23   C103  S    
C49   C51   A    
C34   C42   A    
C50   C52   A    
C23   C89   S    
C128  H24   S    
C88   O40   A    
C68   O54   S    
C97   C105  S    
C14   H70   S    
C41   C43   A    
C42   C44   A    
C20   C132  S    
C21   C133  S    
Cr3   O14   S    
C99   H11   S    
Cr10  O43   S    
C45   C47   A    
C112  H8    S    
C46   C48   A    
C115  C123  S    
C42   H42   S    
C27   C57   A    
C57   C65   A    
C112  C120  S    
Cr11  O46   S    
C19   C99   S    
C29   C55   A    
C96   O8    A    
Cr7   O22   S    
C30   C56   A    
C79   H63   S    
C80   H64   S    
Cr3   O5    S    
C15   C111  S    
C91   O43   A    
C104  C128  S    
C86   O30   A    
Cr9   O34   S    
C12   C20   S    
C120  C128  S    
C142  H38   S    
C13   C21   S    
C85   C117  S    
C93   O45   A    
C63   C71   A    
C113  C137  S    
C36   C44   A    
C33   C51   A    
C37   C45   A    
C130  C138  S    
C90   O2    A    
C36   C50   A    
C39   C47   A    
C40   C48   A    
C20   C94   S    
C133  C141  S    
C24   C90   S    
C11   H67   S    
Cr8   O24   S    
C28   C58   A    
C98   C106  S    
C33   C41   A    
C16   H72   S    
C106  H2    S    
C7    O15   A    
C10   C18   S    
C5    O13   A    
C126  H22   S    
Cr4   O7    S    
C32   C62   A    
Cr1   O2    S    
C129  C137  S    
C126  C134  S    
Cr6   O27   S    
C83   O35   A    
C10   C138  S    
C102  H14   S    
C14   C142  S    
C85   O37   A    
C134  H30   S    
C69   C77   A    
Cr4   O16   S    
C67   O53   S    
C71   C79   A    
Cr11  O37   S    
Cr12  O39   S    
C87   O39   A    
C33   H49   S    
C74   C76   A    
C9    H65   S    
C78   C80   A    
C9    C105  S    
C66   C74   A    
C124  C132  S    
C93   O5    A    
C36   H52   S    
C97   C121  S    
C59   C67   A    
Cr12  O52   S    
C35   C49   A    
C62   C64   A    
C92   O4    A    
C35   C43   A    
C133  H29   S    
C24   C136  S    
C135  C143  S    
C90   O42   A    
C84   C116  S    
C136  H32   S    
C103  H15   S    
C131  H27   S    
C135  H31   S    
C121  H17   S    
C100  C108  S    
C82   O34   A    
C83   C115  S    
C103  C127  S    
C41   H41   S    
C3    O19   A    
C104  C112  S    
C122  H18   S    
C38   H54   S    
C87   C119  S    
O59   H79   S    
Cr7   O29   S    
Cr2   O12   S    
Cr5   O25   S    
C107  C115  S    
O57   H77   S    
C141  H37   S    
C70   O60   S    
Cr4   O52   S    
C98   H10   S    
C15   C143  S    
C44   H44   S    
C40   C54   A    
C76   H60   S    
Cr1   O49   S    
C77   H61   S    
C10   C106  S    
C67   C75   A    
C14   C110  S    
C3    O11   A    
Cr9   O41   S    
C102  C126  S    
C123  H19   S    
C144  H40   S    
C68   C76   A    
C38   C56   A    
C48   H48   S    
C84   O36   A    
C127  H23   S    
C14   C22   S    
C15   H71   S    
Cr11  O51   S    
C72   C80   A    
C125  H21   S    
C94   O46   A    
C81   O25   A    
C114  C138  S    
C38   C46   A    
C131  C139  S    
C2    O18   A    
C37   C55   A    
C113  C121  S    
Cr10  O35   S    
C95   O7    A    
C22   C92   S    
C25   C59   A    
C17   C97   S    
C27   C49   A    
C119  C127  S    
C29   C63   A    
C30   C64   A    
C73   C75   A    
C31   C61   A    
Cr3   O13   S    
C109  C117  S    
Cr10  O44   S    
C11   C19   S    
C127  C135  S    
C139  H35   S    
C128  C136  S    
Cr11  O45   S    
C101  C109  S    
Cr7   O21   S    
C2    O10   A    
C103  C111  S    
Cr5   O49   S    
C11   C139  S    
C9    C137  S    
C105  H1    S    
Cr9   O33   S    
C12   C140  S    
C101  H13   S    
C17   C95   S    
C13   C141  S    
C88   C120  S    
Cr2   O3    S    
C19   C93   S    
Cr7   O51   S    
C104  H16   S    
Cr12  O47   S    
Cr8   O52   S    
C77   C79   A    
C10   H66   S    
C32   C54   A    
C110  H6    S    
C7    O23   A    
C3    C25   S    
Cr8   O31   S    
O60   H80   S    
Cr1   O10   S    
Cr6   O19   S    
C117  C141  S    
O55   H75   S    
Cr10  O50   S    
C134  C142  S    
O56   H76   S    
C20   C100  S    
C96   O48   A    
C143  H39   S    
C85   O29   A    
Cr5   O26   S    
C47   H47   S    
C86   C118  S    
Cr4   O8    S    
C73   H57   S    
Cr6   O50   S    
Cr1   O1    S    
C8    O24   A    
C35   H51   S    
C22   C134  S    
Cr6   O28   S    
C69   O59   S    
C102  C110  S    
C16   C112  S    
C89   O1    A    
C21   C91   S    
C105  C113  S    
C116  C124  S    
C123  C131  S    
C121  C129  S    
C88   O32   A    
C4    C26   S    
Cr12  O40   S    
C132  C140  S    
C99   C107  S    
C40   H56   S    
C34   C52   A    
C23   C135  S    
C8    C30   S    
C108  C116  S    
Cr5   O17   S    
C136  C144  S    
Cr3   O6    S    
C132  H28   S    
C39   C53   A    
C97   H9    S    
C6    O14   A    
Cr2   O50   S    
C78   H62   S    
C46   H46   S    
C60   C68   A    
C81   C113  S    
C65   O55   S    
C100  C124  S    
C124  H20   S    
C86   O38   A    
Cr9   O42   S    
C70   C78   A    
C18   C96   S    
C12   H68   S    
C13   H69   S    
Cr8   O23   S    
C34   H50   S    
C95   O47   A    
C106  C114  S    
C111  C119  S    
C66   O56   S    
C94   O6    A    
C65   C73   A    
C5    C31   S    
C28   C50   A    
C58   C66   A    
C13   C109  S    
C21   C101  S    
C15   C23   S    
C12   C108  S    
C16   C24   S    
C89   O41   A    
C84   O28   A    
Cr4   O15   S    
Cr11  O38   S    
C53   C55   A    
C19   C131  S    
C83   O27   A    
C17   C129  S    
C81   O33   A    
C111  H7    S    
C82   C114  S    
C130  H26   S    
O53   H73   S    
C4    O12   A    
C24   C104  S    
C25   C51   A    
C26   C52   A    
C87   O31   A    
C125  C133  S    
C39   H55   S    
C31   C53   A    
C37   H53   S    
C137  H33   S    
C9    C17   S    
Cr10  O36   S    
C11   C107  S    
C140  H36   S    
C92   O44   A    
O54   H74   S    
Cr9   O49   S    
C99   C123  S    
C61   C69   A    
C129  H25   S    
C138  H34   S    
C115  C139  S    
C118  C142  S    
C107  H3    S    
C54   C56   A    
C108  H4    S    
C118  C126  S    
C22   C102  S    
C100  H12   S    
C43   H43   S    
C109  H5    S    
Cr7   O30   S    
Cr2   O11   S    
C74   H58   S    
C26   C60   A    
C8    O16   A    
C82   O26   A    
C64   C72   A    
C6    O22   A    
C18   C130  S    
C114  C122  S    
C1    O17   A    
C98   C122  S    
C45   H45   S    
C1    C27   S    
C2    C28   S    
C71   O57   S    
C116  C140  S    
C117  C125  S    
Cr3   O51   S    
C101  C125  S    
C122  C130  S    
Cr2   O4    S    
Cr12  O48   S    
