data_str_m4_o14_o24_f0_acs.sym.105
_audit_creation_date              2012-12-11T14:24:41-0500
_audit_creation_method            fapswitch 2.2
_symmetry_space_group_name_H-M    P1
_symmetry_Int_Tables_number       1
_space_group_crystal_system       triclinic
_cell_length_a                    19.114419
_cell_length_b                    10.958587
_cell_length_c                    18.895097
_cell_angle_alpha                 90.225999
_cell_angle_beta                  91.297504
_cell_angle_gamma                 89.360092
_cell_volume                      3956.61115424

loop_
_atom_site_label
_atom_site_type_symbol
_atom_type_description
_atom_site_fract_x
_atom_site_fract_y
_atom_site_fract_z
_atom_type_partial_charge
C1    C     C_R   0.728281 0.372502 0.144572 0.552042
C2    C     C_R   0.269927 0.375330 0.853979 0.562693
C3    C     C_R   0.228281 0.872502 0.144572 0.552042
C4    C     C_R   0.769927 0.875330 0.853979 0.562694
C5    C     C_3   0.494856 0.048265 0.023742 -0.183177
C6    C     C_3   0.546992 0.086417 0.966839 -0.216593
C7    C     C_3   0.994856 0.548265 0.023742 -0.183177
C8    C     C_3   0.046992 0.586417 0.966839 -0.216593
C9    C     C_R   0.751145 0.910890 0.926623 -0.013669
C10   C     C_R   0.241371 0.899479 0.069500 -0.005122
C11   C     C_R   0.251145 0.410890 0.926623 -0.013669
C12   C     C_R   0.741371 0.399479 0.069500 -0.005122
C13   C     C_R   0.698637 0.849398 0.965243 -0.042507
C14   C     C_R   0.304018 0.863554 0.035872 -0.040059
C15   C     C_R   0.198637 0.349399 0.965243 -0.042507
C16   C     C_R   0.804018 0.363554 0.035872 -0.040059
C17   C     C_R   0.702326 0.850939 0.040486 0.003440
C18   C     C_R   0.305271 0.860352 0.960684 -0.007410
C19   C     C_R   0.202326 0.350939 0.040485 0.003440
C20   C     C_R   0.805271 0.360352 0.960684 -0.007410
C21   C     C_R   0.798359 0.993420 0.035702 -0.024449
C22   C     C_R   0.187226 0.941744 0.954569 -0.094409
C23   C     C_R   0.298359 0.493420 0.035702 -0.024449
C24   C     C_R   0.687226 0.441744 0.954569 -0.094409
C25   C     C_R   0.799283 0.984127 0.963556 0.368917
C26   C     C_R   0.182831 0.933853 0.026879 0.333883
C27   C     C_R   0.299283 0.484127 0.963556 0.368918
C28   C     C_R   0.682831 0.433853 0.026879 0.333882
C29   C     C_R   0.643470 0.783984 0.932080 -0.103471
C30   C     C_R   0.364685 0.826101 0.074387 -0.107754
C31   C     C_R   0.143470 0.283984 0.932080 -0.103471
C32   C     C_R   0.864685 0.326101 0.074387 -0.107754
C33   C     C_R   0.100625 0.209594 0.971092 -0.117294
C34   C     C_R   0.919388 0.267491 0.040563 -0.124661
C35   C     C_R   0.600625 0.709594 0.971092 -0.117294
C36   C     C_R   0.419388 0.767491 0.040563 -0.124661
C37   C     C_R   0.607220 0.706088 0.044212 -0.079418
C38   C     C_R   0.417750 0.755498 0.967492 -0.036591
C39   C     C_R   0.107220 0.206088 0.044212 -0.079418
C40   C     C_R   0.917750 0.255498 0.967493 -0.036590
C41   C     C_R   0.658226 0.774054 0.078735 -0.075868
C42   C     C_R   0.361889 0.801847 0.927747 -0.015281
C43   C     C_R   0.158226 0.274054 0.078735 -0.075868
C44   C     C_R   0.861889 0.301847 0.927747 -0.015281
C45   C     C_R   0.534500 0.155218 0.143084 0.592899
C46   C     C_R   0.467257 0.155357 0.855856 0.570861
C47   C     C_R   0.034500 0.655218 0.143084 0.592899
C48   C     C_R   0.967257 0.655357 0.855856 0.570861
C49   C     C_R   0.750203 0.929057 0.075278 -0.023756
C50   C     C_R   0.249062 0.913144 0.920906 -0.072003
C51   C     C_R   0.250203 0.429057 0.075278 -0.023756
C52   C     C_R   0.749062 0.413144 0.920906 -0.072003
C53   C     C_R   0.464784 0.145246 0.565783 0.001132
C54   C     C_R   0.528460 0.153445 0.433367 0.007435
C55   C     C_R   0.964784 0.645246 0.565783 0.001132
C56   C     C_R   0.028459 0.653445 0.433367 0.007435
C57   C     C_R   0.496813 0.036027 0.537849 0.040433
C58   C     C_R   0.534307 0.045630 0.475270 0.018366
C59   C     C_R   0.996813 0.536027 0.537849 0.040433
C60   C     C_R   0.034307 0.545630 0.475270 0.018366
C61   C     C_R   0.487802 0.251741 0.456801 -0.133010
C62   C     C_R   0.457828 0.248886 0.523157 -0.163739
C63   C     C_R   0.987802 0.751741 0.456801 -0.133010
C64   C     C_R   0.957828 0.748886 0.523157 -0.163739
C65   C     C_R   0.494037 0.916726 0.569463 -0.092435
C66   C     C_R   0.574558 0.943664 0.454392 -0.094869
C67   C     C_R   0.994037 0.416726 0.569463 -0.092435
C68   C     C_R   0.074558 0.443664 0.454392 -0.094869
C69   C     C_R   0.032412 0.318464 0.545657 -0.145796
C70   C     C_R   0.070774 0.331054 0.486386 -0.133972
C71   C     C_R   0.532412 0.818464 0.545657 -0.145795
C72   C     C_R   0.570774 0.831053 0.486386 -0.133972
C73   C     C_R   0.751186 0.909458 0.573116 0.009302
C74   C     C_R   0.239066 0.926033 0.426153 0.006732
C75   C     C_R   0.251186 0.409458 0.573116 0.009302
C76   C     C_R   0.739066 0.426033 0.426153 0.006732
C77   C     C_R   0.783428 0.011355 0.544856 0.018755
C78   C     C_R   0.178942 0.954276 0.467989 0.034561
C79   C     C_R   0.283428 0.511355 0.544856 0.018755
C80   C     C_R   0.678942 0.454276 0.467989 0.034561
C81   C     C_R   0.801407 0.007166 0.473708 0.039274
C82   C     C_R   0.182824 0.928691 0.540295 0.020620
C83   C     C_R   0.301407 0.507166 0.473708 0.039274
C84   C     C_R   0.682824 0.428691 0.540295 0.020620
C85   C     C_R   0.729737 0.827889 0.455104 -0.184425
C86   C     C_R   0.309314 0.925565 0.530837 -0.146573
C87   C     C_R   0.229737 0.327889 0.455104 -0.184425
C88   C     C_R   0.809314 0.425565 0.530837 -0.146573
C89   C     C_R   0.741600 0.970416 0.148402 0.547348
C90   C     C_R   0.258387 0.967315 0.850680 0.542255
C91   C     C_R   0.241600 0.470416 0.148402 0.547348
C92   C     C_R   0.758387 0.467315 0.850680 0.542255
C93   C     C_R   0.726447 0.815789 0.528074 -0.142813
C94   C     C_R   0.304275 0.914766 0.458419 -0.150567
C95   C     C_R   0.226447 0.315789 0.528074 -0.142813
C96   C     C_R   0.804275 0.414766 0.458419 -0.150567
C97   C     C_R   0.808169 0.106706 0.588564 -0.076326
C98   C     C_R   0.115958 0.008962 0.441552 -0.093501
C99   C     C_R   0.308169 0.606706 0.588564 -0.076326
C100  C     C_R   0.615958 0.508962 0.441552 -0.093501
C101  C     C_R   0.862889 0.177576 0.566910 -0.114503
C102  C     C_R   0.056724 0.016399 0.482849 -0.155482
C103  C     C_R   0.362889 0.677577 0.566910 -0.114503
C104  C     C_R   0.556724 0.516398 0.482849 -0.155482
C105  C     C_R   0.887936 0.164239 0.498897 -0.151295
C106  C     C_R   0.058532 0.971492 0.551427 -0.117429
C107  C     C_R   0.387936 0.664239 0.498897 -0.151295
C108  C     C_R   0.558532 0.471492 0.551427 -0.117429
C109  C     C_R   0.858426 0.079271 0.452873 -0.083580
C110  C     C_R   0.120929 0.925213 0.579839 -0.074227
C111  C     C_R   0.358426 0.579271 0.452873 -0.083580
C112  C     C_R   0.620929 0.425213 0.579839 -0.074227
C113  C     C_R   0.762709 0.928342 0.427351 -0.000298
C114  C     C_R   0.249394 0.925355 0.572518 -0.000185
C115  C     C_R   0.262709 0.428341 0.427351 -0.000298
C116  C     C_R   0.749394 0.425355 0.572518 -0.000185
C117  C     C_R   0.729299 0.381297 0.354266 0.538827
C118  C     C_R   0.269230 0.376952 0.645336 0.523124
C119  C     C_R   0.229299 0.881297 0.354266 0.538827
C120  C     C_R   0.769230 0.876952 0.645336 0.523124
C121  C     C_R   0.556742 0.153395 0.361470 0.542435
C122  C     C_R   0.439306 0.151118 0.638659 0.546337
C123  C     C_R   0.056742 0.653395 0.361470 0.542435
C124  C     C_R   0.939306 0.651118 0.638659 0.546337
C125  C     C_R   0.744648 0.970259 0.355825 0.537364
C126  C     C_R   0.257674 0.969661 0.644103 0.525239
C127  C     C_R   0.244648 0.470259 0.355825 0.537364
C128  C     C_R   0.757675 0.469661 0.644103 0.525239
C129  C     C_3   0.508520 0.274898 0.974689 0.465356
C130  C     C_3   0.456824 0.236723 0.031201 0.420368
C131  C     C_3   0.008520 0.774898 0.974689 0.465356
C132  C     C_3   0.956824 0.736724 0.031201 0.420368
C133  C     C_3   0.567464 0.199496 0.011655 -0.118658
C134  C     C_3   0.435893 0.124084 0.986902 -0.144233
C135  C     C_3   0.067464 0.699495 0.011655 -0.118658
C136  C     C_3   0.935892 0.624085 0.986902 -0.144233
C137  C     C_3   0.514439 0.161503 0.067702 0.014216
C138  C     C_3   0.488854 0.162670 0.930611 -0.006534
C139  C     C_3   0.014438 0.661503 0.067702 0.014216
C140  C     C_3   0.988854 0.662670 0.930611 -0.006534
Cr1   Cr    Cr6+3 0.772820 0.169820 0.252640 1.012949
Cr2   Cr    Cr6+3 0.227180 0.169820 0.747360 1.006606
Cr3   Cr    Cr6+3 0.272820 0.669820 0.252640 1.012949
Cr4   Cr    Cr6+3 0.727180 0.669820 0.747360 1.006606
Cr5   Cr    Cr6+3 0.615040 0.323610 0.249150 1.065265
Cr6   Cr    Cr6+3 0.384960 0.323610 0.750850 1.074082
Cr7   Cr    Cr6+3 0.115040 0.823610 0.249150 1.065265
Cr8   Cr    Cr6+3 0.884960 0.823610 0.750850 1.074082
Cr9   Cr    Cr6+3 0.616720 0.011130 0.250660 0.995774
Cr10  Cr    Cr6+3 0.383280 0.011130 0.749340 0.986555
Cr11  Cr    Cr6+3 0.116720 0.511130 0.250660 0.995774
Cr12  Cr    Cr6+3 0.883280 0.511130 0.749340 0.986555
H1    H     H_    0.622658 0.222550 0.023396 0.144026
H2    H     H_    0.381514 0.093706 0.975809 0.138605
H3    H     H_    0.122658 0.722550 0.023396 0.144025
H4    H     H_    0.881514 0.593707 0.975809 0.138604
H5    H     H_    0.479049 0.331025 0.423671 0.140939
H6    H     H_    0.428536 0.327853 0.541188 0.135750
H7    H     H_    0.979049 0.831026 0.423671 0.140939
H8    H     H_    0.928536 0.827853 0.541188 0.135750
H9    H     H_    0.029258 0.230646 0.571353 0.121258
H10   H     H_    0.097771 0.253169 0.465051 0.115369
H11   H     H_    0.529258 0.730646 0.571353 0.121258
H12   H     H_    0.597771 0.753169 0.465051 0.115369
H13   H     H_    0.706151 0.760485 0.420270 0.113351
H14   H     H_    0.360321 0.935473 0.554263 0.130037
H15   H     H_    0.206151 0.260485 0.420270 0.113351
H16   H     H_    0.860321 0.435473 0.554263 0.130037
H17   H     H_    0.789661 0.119192 0.641925 0.124360
H18   H     H_    0.112198 0.053468 0.390678 0.136554
H19   H     H_    0.289661 0.619192 0.641925 0.124360
H20   H     H_    0.612198 0.553468 0.390678 0.136554
H21   H     H_    0.705277 0.732480 0.549161 0.159481
H22   H     H_    0.350940 0.901035 0.427716 0.133448
H23   H     H_    0.205277 0.232480 0.549161 0.159481
H24   H     H_    0.850940 0.401035 0.427716 0.133448
H25   H     H_    0.885655 0.241521 0.603757 0.104639
H26   H     H_    0.009384 0.056592 0.460966 0.102922
H27   H     H_    0.385655 0.741521 0.603757 0.104639
H28   H     H_    0.509384 0.556592 0.460966 0.102922
H29   H     H_    0.884223 0.066620 0.403086 0.140496
H30   H     H_    0.121724 0.894034 0.634182 0.133795
H31   H     H_    0.384223 0.566620 0.403086 0.140496
H32   H     H_    0.621724 0.394034 0.634182 0.133795
H33   H     H_    0.493133 0.956382 0.046865 0.159640
H34   H     H_    0.583985 0.025562 0.938828 0.140333
H35   H     H_    0.993133 0.456383 0.046865 0.159640
H36   H     H_    0.083985 0.525561 0.938829 0.140333
H37   H     H_    0.836172 0.053785 0.060419 0.199304
H38   H     H_    0.141633 0.973082 0.924595 0.206155
H39   H     H_    0.336172 0.553785 0.060419 0.199304
H40   H     H_    0.641633 0.473082 0.924595 0.206155
H41   H     H_    0.630655 0.790850 0.876431 0.147625
H42   H     H_    0.371264 0.841344 0.130554 0.147049
H43   H     H_    0.130655 0.290851 0.876431 0.147625
H44   H     H_    0.871264 0.341344 0.130554 0.147049
H45   H     H_    0.064012 0.150874 0.943916 0.164451
H46   H     H_    0.963349 0.232889 0.071418 0.116237
H47   H     H_    0.564012 0.650874 0.943916 0.164451
H48   H     H_    0.463349 0.732889 0.071418 0.116238
H49   H     H_    0.664132 0.761629 0.135241 0.139643
H50   H     H_    0.361491 0.781816 0.871746 0.160449
H51   H     H_    0.164132 0.261628 0.135241 0.139643
H52   H     H_    0.861491 0.281816 0.871746 0.160449
O1    O     O_R   0.788190 0.043000 0.172520 -0.508766
O2    O     O_R   0.211810 0.043000 0.827480 -0.516541
O3    O     O_R   0.288190 0.543000 0.172520 -0.508766
O4    O     O_R   0.711810 0.543000 0.827480 -0.516541
O5    O     O_R   0.556550 0.253260 0.323480 -0.499210
O6    O     O_R   0.443450 0.253260 0.676520 -0.499953
O7    O     O_R   0.056550 0.753260 0.323480 -0.499210
O8    O     O_R   0.943450 0.753260 0.676520 -0.499953
O9    O     O_R   0.545830 0.051610 0.330160 -0.528704
O10   O     O_R   0.454170 0.051610 0.669840 -0.541613
O11   O     O_R   0.045830 0.551610 0.330160 -0.528704
O12   O     O_R   0.954170 0.551610 0.669840 -0.541613
O13   O     O_R   0.681920 0.959720 0.327070 -0.539539
O14   O     O_R   0.318080 0.959720 0.672930 -0.536732
O15   O     O_R   0.181920 0.459720 0.327070 -0.539539
O16   O     O_R   0.818080 0.459720 0.672930 -0.536732
O17   O     O_3   0.668190 0.168190 0.250820 -0.275690
O18   O     O_3   0.331810 0.168190 0.749180 -0.275710
O19   O     O_3   0.168190 0.668190 0.250820 -0.275690
O20   O     O_3   0.831810 0.668190 0.749180 -0.275710
O21   O     O_R   0.766240 0.292300 0.176860 -0.531165
O22   O     O_R   0.233760 0.292300 0.823140 -0.532131
O23   O     O_R   0.266240 0.792300 0.176860 -0.531165
O24   O     O_R   0.733760 0.792300 0.823140 -0.532132
O25   O     O_R   0.670310 0.409160 0.168720 -0.442663
O26   O     O_R   0.329690 0.409160 0.831280 -0.415986
O27   O     O_R   0.170310 0.909160 0.168720 -0.442663
O28   O     O_R   0.829690 0.909160 0.831280 -0.415986
O29   O     O_R   0.556160 0.251900 0.173380 -0.445848
O30   O     O_R   0.443840 0.251900 0.826620 -0.449100
O31   O     O_R   0.056160 0.751900 0.173380 -0.445848
O32   O     O_R   0.943840 0.751900 0.826620 -0.449100
O33   O     O_R   0.545410 0.050140 0.168240 -0.532546
O34   O     O_R   0.454590 0.050140 0.831760 -0.526125
O35   O     O_R   0.045410 0.550140 0.168240 -0.532546
O36   O     O_R   0.954590 0.550140 0.831760 -0.526125
O37   O     O_R   0.681530 0.958350 0.176970 -0.516639
O38   O     O_R   0.318470 0.958350 0.823030 -0.516940
O39   O     O_R   0.181530 0.458350 0.176970 -0.516639
O40   O     O_R   0.818470 0.458350 0.823030 -0.516940
O41   O     O_R   0.788610 0.044480 0.334450 -0.524594
O42   O     O_R   0.211390 0.044480 0.665550 -0.521529
O43   O     O_R   0.288610 0.544480 0.334450 -0.524594
O44   O     O_R   0.711390 0.544480 0.665550 -0.521529
O45   O     O_R   0.766630 0.293670 0.326970 -0.496760
O46   O     O_R   0.233370 0.293670 0.673030 -0.507225
O47   O     O_R   0.266630 0.793670 0.326970 -0.496760
O48   O     O_R   0.733370 0.793670 0.673030 -0.507225
O49   O     O_R   0.670730 0.410640 0.330640 -0.548983
O50   O     O_R   0.329270 0.410640 0.669360 -0.536416
O51   O     O_R   0.170730 0.910640 0.330640 -0.548983
O52   O     O_R   0.829270 0.910640 0.669360 -0.536416
H53   H     H_    0.459848 0.889167 0.610205 0.144609
H54   H     H_    0.609336 0.948406 0.412987 0.179410
H55   H     H_    0.959848 0.389167 0.610205 0.144609
H56   H     H_    0.109336 0.448406 0.412987 0.179410
H57   H     H_    0.929396 0.220682 0.480537 0.118457
H58   H     H_    0.012321 0.976506 0.583396 0.126884
H59   H     H_    0.429396 0.720682 0.480537 0.118457
H60   H     H_    0.512321 0.476506 0.583396 0.126884
F1    F     F_    0.514444 0.391576 0.948156 -0.580795
F2    F     F_    0.411306 0.313416 0.066149 -0.617483
F3    F     F_    0.014444 0.891576 0.948156 -0.580796
F4    F     F_    0.911306 0.813417 0.066149 -0.617483
F5    F     F_    0.850840 0.043056 0.930320 -0.615609
F6    F     F_    0.118302 0.950142 0.053884 -0.614234
F7    F     F_    0.350840 0.543057 0.930320 -0.615609
F8    F     F_    0.618302 0.450142 0.053884 -0.614234
H61   H     H_    0.073458 0.149005 0.074593 0.195865
H62   H     H_    0.958109 0.206421 0.940726 0.156586
H63   H     H_    0.573458 0.649005 0.074593 0.195865
H64   H     H_    0.458110 0.706421 0.940726 0.156586

loop_
_geom_bond_atom_site_label_1
_geom_bond_atom_site_label_2
_ccdc_geom_bond_type
C24   C52   A    
C31   H43   S    
C121  O5    A    
C88   C96   A    
C88   C116  A    
Cr2   O46   S    
Cr5   O29   S    
C126  O42   A    
Cr1   O45   S    
C14   C18   A    
C125  O41   A    
C86   H14   S    
C73   C93   A    
C133  C137  S    
C136  C140  S    
Cr7   O31   S    
C23   H39   S    
Cr6   O26   S    
C120  O48   A    
C75   C95   A    
C7    C8    S    
C112  H32   S    
C30   H42   S    
C8    H36   S    
C132  C139  S    
C135  C139  S    
C74   C119  S    
Cr12  O12   S    
C88   H16   S    
C123  O11   A    
C33   C39   A    
C50   C90   S    
C71   H11   S    
C12   C28   A    
C37   C41   A    
C34   C40   A    
C46   O30   A    
C13   C29   A    
C35   C37   A    
C45   O29   A    
Cr12  O40   S    
C6    C133  S    
C55   C59   A    
C53   C122  S    
Cr8   O8    S    
C106  C110  A    
C5    C6    S    
C114  C126  S    
C9    C13   A    
C29   H41   S    
C132  C136  S    
Cr5   O25   S    
Cr5   O17   S    
C6    H34   S    
C23   C51   A    
Cr7   O27   S    
C109  H29   S    
C29   C35   A    
C100  C104  A    
C115  C127  S    
C34   H46   S    
Cr10  O14   S    
C93   H21   S    
C86   C114  A    
Cr9   O37   S    
C95   H23   S    
C21   C25   A    
C131  C140  S    
C86   C94   A    
C51   C91   S    
C90   O2    A    
C85   C93   A    
C58   C66   A    
C89   O1    A    
C129  C138  S    
C12   C16   A    
C66   C72   A    
Cr10  O34   S    
C107  H59   S    
C123  O7    A    
C111  H31   S    
C78   C98   A    
C25   F5    S    
Cr1   O41   S    
C87   C115  A    
C31   C33   A    
C106  H58   S    
C81   C109  A    
Cr8   O28   S    
C89   O37   A    
C5    H33   S    
C22   H38   S    
C118  O50   A    
C128  O16   A    
C103  H27   S    
C61   C62   A    
C32   H44   S    
C22   C50   A    
C59   C67   A    
C10   C26   A    
Cr2   O2    S    
Cr6   O6    S    
C116  C128  S    
C59   C60   A    
C84   C116  A    
C73   C120  S    
Cr11  O11   S    
C119  O47   A    
C80   C100  A    
C8    C135  S    
Cr1   O21   S    
Cr10  O18   S    
Cr5   O49   S    
C40   H62   S    
C130  C134  S    
C1    C12   S    
C11   C15   A    
C14   C30   A    
C2    O22   A    
Cr7   O7    S    
C2    C11   S    
C70   H10   S    
C87   H15   S    
C20   C44   A    
C19   C43   A    
C11   C27   A    
Cr2   O22   S    
Cr5   O5    S    
C101  C105  A    
C5    C134  S    
Cr3   O3    S    
C17   C41   A    
C49   C89   S    
C48   C140  S    
C35   H47   S    
C80   C84   A    
C128  O44   A    
C56   C123  S    
C83   C115  A    
C21   H37   S    
Cr10  O10   S    
C27   F7    S    
C82   C114  A    
Cr9   O9    S    
C124  O12   A    
C99   C103  A    
C118  O46   A    
C135  H3    S    
C3    O27   A    
C68   H56   S    
C117  O45   A    
C130  F2    S    
C39   C43   A    
C124  O8    A    
C91   O39   A    
Cr2   O42   S    
C32   C34   A    
C98   C102  A    
Cr11  O39   S    
C7    H35   S    
C108  C112  A    
C87   C95   A    
Cr8   O32   S    
C121  O9    A    
C6    C138  S    
C15   C19   A    
Cr1   O17   S    
C120  O52   A    
Cr12  O20   S    
C63   H7    S    
C92   O4    A    
Cr3   O19   S    
C61   H5    S    
C132  F4    S    
C53   C62   A    
C78   C82   A    
Cr10  O38   S    
Cr9   O33   S    
Cr12  O36   S    
C33   H45   S    
C16   C20   A    
C46   O34   A    
C57   C65   A    
C55   C64   A    
C64   H8    S    
C45   O33   A    
C45   C137  S    
C72   H12   S    
C56   C63   A    
C28   F8    S    
C24   H40   S    
C84   C112  A    
C15   C31   A    
C47   C139  S    
C60   C68   A    
C48   O32   A    
Cr3   O47   S    
Cr9   O17   S    
C122  O6    A    
C129  C133  S    
C21   C49   A    
C68   C70   A    
C54   C121  S    
C94   H22   S    
Cr8   O52   S    
C23   C27   A    
C85   C113  A    
C90   O38   A    
C43   H51   S    
C102  H26   S    
C83   C111  A    
C42   H50   S    
C127  O43   A    
C17   C49   A    
C131  C132  S    
Cr3   O43   S    
Cr4   O44   S    
C82   C110  A    
C104  C108  A    
C56   C60   A    
Cr7   O19   S    
C100  H20   S    
C18   C50   A    
C4    O28   A    
C129  C130  S    
C54   C58   A    
C79   C99   A    
C1    O21   A    
C47   O31   A    
C105  C109  A    
C65   H53   S    
C133  H1    S    
C53   C57   A    
C96   H24   S    
Cr6   O50   S    
C9    C25   A    
C107  C111  A    
C37   H63   S    
C75   C118  S    
C24   C28   A    
Cr3   O23   S    
C63   C64   A    
C66   H54   S    
C119  O51   A    
C134  C138  S    
C91   O3    A    
C76   C80   A    
C127  O15   A    
C39   H61   S    
C5    C137  S    
C36   H48   S    
C54   C61   A    
C67   H55   S    
C16   C32   A    
Cr11  O35   S    
C3    O23   A    
C48   O36   A    
C131  C135  S    
C76   C117  S    
C69   H9    S    
C30   C36   A    
C8    C140  S    
C85   H13   S    
Cr6   O30   S    
C129  F1    S    
C18   C42   A    
Cr8   O20   S    
C97   H17   S    
C7    C136  S    
C20   C52   A    
C3    C10   S    
C65   C71   A    
C76   C96   A    
C36   C38   A    
C79   C83   A    
C92   O40   A    
C38   H64   S    
C57   C58   A    
C104  H28   S    
C26   F6    S    
C75   C79   A    
C19   C51   A    
Cr6   O18   S    
Cr12  O16   S    
C113  C125  S    
Cr7   O51   S    
C47   O35   A    
Cr11  O19   S    
C62   H6    S    
C102  C106  A    
Cr11  O15   S    
C4    O24   A    
C136  H4    S    
Cr4   O48   S    
C69   C70   A    
C130  C137  S    
C117  O49   A    
Cr1   O1    S    
Cr9   O13   S    
Cr4   O20   S    
C101  H25   S    
C38   C42   A    
C2    O26   A    
C22   C26   A    
C13   C17   A    
C98   H18   S    
C55   C124  S    
C1    O25   A    
C40   C44   A    
C131  F3    S    
C71   C72   A    
C110  H30   S    
C105  H57   S    
C77   C81   A    
C74   C78   A    
C81   C113  A    
C74   C94   A    
C44   H52   S    
C73   C77   A    
C46   C138  S    
Cr4   O24   S    
C103  C107  A    
C77   C97   A    
C7    C139  S    
C67   C69   A    
C4    C9    S    
C134  H2    S    
C108  H60   S    
C41   H49   S    
Cr2   O18   S    
C52   C92   S    
C97   C101  A    
C122  O10   A    
C126  O14   A    
C99   H19   S    
C10   C14   A    
Cr4   O4    S    
C125  O13   A    
