data_str_m12_o9_o22_f0_bcu.sym.38
_audit_creation_date              2012-12-11T17:45:27-0500
_audit_creation_method            fapswitch 2.2
_symmetry_space_group_name_H-M    P1
_symmetry_Int_Tables_number       1
_space_group_crystal_system       triclinic
_cell_length_a                    14.98657
_cell_length_b                    14.903357
_cell_length_c                    15.107873
_cell_angle_alpha                 110.2233
_cell_angle_beta                  109.208303
_cell_angle_gamma                 109.162851
_cell_volume                      2591.54790206

loop_
_atom_site_label
_atom_site_type_symbol
_atom_type_description
_atom_site_fract_x
_atom_site_fract_y
_atom_site_fract_z
_atom_type_partial_charge
C1    C     C_R   0.973697 0.248954 0.062397 -0.123311
C2    C     C_R   0.705651 0.193311 0.794910 -0.135182
C3    C     C_R   0.776785 0.591864 0.024855 -0.148817
C4    C     C_R   0.315284 0.759986 0.225306 -0.137202
C5    C     C_R   0.942043 0.409402 0.685368 -0.137028
C6    C     C_R   0.674499 0.499088 0.948954 0.036862
C7    C     C_R   0.960212 0.504257 0.678870 0.043057
C8    C     C_R   0.705184 0.127256 0.703476 0.066959
C9    C     C_R   0.065137 0.870987 0.075370 0.068299
C10   C     C_R   0.610897 0.270073 0.095078 -0.119140
C11   C     C_R   0.692007 0.357417 0.199814 -0.153438
C12   C     C_R   0.324736 0.790026 0.328021 0.054003
C13   C     C_R   0.739976 0.336463 0.281947 0.118029
C14   C     C_R   0.698005 0.226655 0.259209 -0.162467
C15   C     C_R   0.612484 0.139914 0.155597 -0.116404
C16   C     C_R   0.208207 0.409066 0.902165 -0.148758
C17   C     C_R   0.569969 0.161623 0.073222 -0.089479
C18   C     C_R   0.848850 0.431660 0.484459 -0.250880
C19   C     C_R   0.944052 0.513737 0.583878 0.075007
C20   C     C_R   0.027949 0.598916 0.589561 0.015983
C21   C     C_R   0.016270 0.596448 0.495183 -0.250611
C22   C     C_R   0.927024 0.509356 0.394921 0.066292
C23   C     C_R   0.299905 0.500982 0.930758 0.011386
C24   C     C_R   0.838918 0.427672 0.387824 0.025753
C25   C     C_R   0.160494 0.789269 0.752144 -0.202628
C26   C     C_R   0.264888 0.868051 0.841395 -0.132289
C27   C     C_R   0.347618 0.841401 0.863173 -0.080313
C28   C     C_R   0.996586 0.592516 0.298717 -0.166354
C29   C     C_R   0.326150 0.736151 0.796075 -0.084569
C30   C     C_R   0.221065 0.655829 0.709038 -0.165697
C31   C     C_R   0.137228 0.681683 0.687020 0.129955
C32   C     C_R   0.253360 0.040277 0.535873 -0.127433
C33   C     C_R   0.330043 0.012621 0.521850 -0.128246
C34   C     C_R   0.941187 0.502050 0.303328 0.059887
C35   C     C_R   0.341010 0.929654 0.540164 0.107839
C36   C     C_R   0.275958 0.876190 0.574670 -0.184188
C37   C     C_R   0.195242 0.900026 0.582538 -0.118412
C38   C     C_R   0.184621 0.982597 0.564162 -0.118963
C39   C     C_R   0.526606 0.972269 0.628295 -0.227939
C40   C     C_R   0.299243 0.592033 0.995306 -0.117439
C41   C     C_R   0.622757 0.009708 0.624210 0.050352
C42   C     C_R   0.623154 0.946472 0.529778 0.029958
C43   C     C_R   0.523349 0.865337 0.435404 -0.243778
C44   C     C_R   0.425548 0.853015 0.433377 0.067732
C45   C     C_R   0.686064 0.407104 0.932830 -0.148168
C46   C     C_R   0.428072 0.907606 0.532619 0.016624
C47   C     C_R   0.741175 0.005559 0.454107 -0.194031
C48   C     C_R   0.845445 0.053215 0.467407 -0.117041
C49   C     C_R   0.932414 0.061124 0.548138 -0.114670
C50   C     C_R   0.914965 0.020061 0.614769 -0.136494
C51   C     C_R   0.811606 0.974943 0.603857 -0.145083
C52   C     C_R   0.911255 0.409125 0.211420 -0.135787
C53   C     C_R   0.724677 0.970154 0.525297 0.118613
C54   C     C_3   0.470345 0.386163 0.842807 -0.412268
C55   C     C_3   0.367018 0.389483 0.834905 -0.535718
C56   C     C_R   0.024111 0.593518 0.782300 -0.106295
C57   C     C_3   0.576186 0.524345 0.045161 -0.402560
C58   C     C_3   0.562465 0.588378 0.908641 -0.513756
C59   C     C_3   0.572683 0.499293 0.935124 0.329247
C60   C     C_3   0.397322 0.501761 0.927017 0.237586
C61   C     C_3   0.472446 0.522438 0.039202 -0.358848
C62   C     C_3   0.460256 0.592692 0.907450 0.644485
C63   C     C_R   0.181061 0.058367 0.813976 -0.133999
C64   C     C_R   0.220511 0.752139 0.313335 -0.121374
C65   C     C_R   0.138544 0.056922 0.882927 -0.191656
C66   C     C_R   0.200921 0.139317 0.993338 0.114256
C67   C     C_R   0.793366 0.194879 0.701822 -0.145015
C68   C     C_R   0.305636 0.223589 0.033930 -0.146282
C69   C     C_R   0.347538 0.224391 0.964123 -0.140131
C70   C     C_R   0.286217 0.140992 0.854654 -0.114919
C71   C     C_R   0.171914 0.044360 0.089248 -0.230163
C72   C     C_R   0.101464 0.989633 0.117693 0.055758
C73   C     C_R   0.053187 0.044058 0.165197 0.024730
C74   C     C_R   0.061315 0.138448 0.162318 -0.239948
C75   C     C_R   0.098262 0.167266 0.096826 0.060401
C76   C     C_R   0.067663 0.251799 0.973604 -0.140863
C77   C     C_R   0.162339 0.124814 0.067274 0.026384
C78   C     C_R   0.001336 0.802534 0.097755 -0.143928
C79   C     C_R   0.866199 0.947995 0.135580 -0.165109
C80   C     C_R   0.795212 0.894180 0.164413 -0.156319
C81   C     C_R   0.836706 0.888209 0.258256 -0.099951
C82   C     C_R   0.949412 0.941570 0.326728 -0.125435
C83   C     C_R   0.020957 0.999708 0.300755 -0.184754
C84   C     C_R   0.979474 0.998263 0.202160 0.120310
C85   C     C_R   0.051708 0.223268 0.048116 0.057132
C86   C     C_R   0.094930 0.807593 0.010710 -0.148964
F1    F     F_    0.493268 0.697405 0.986186 -0.764181
H1    H     H_    0.939148 0.236845 0.112215 0.093150
H2    H     H_    0.581698 0.286348 0.030148 0.094229
H3    H     H_    0.721847 0.440995 0.215012 0.113022
H4    H     H_    0.380020 0.775861 0.205968 0.099446
H5    H     H_    0.733584 0.207589 0.320261 0.107106
H6    H     H_    0.581285 0.055663 0.138411 0.116250
H7    H     H_    0.784282 0.368983 0.482338 0.129056
H8    H     H_    0.084896 0.657157 0.500058 0.130949
H9    H     H_    0.097038 0.810911 0.735086 0.112543
H10   H     H_    0.282010 0.949835 0.893467 0.137244
H11   H     H_    0.428677 0.902291 0.931496 0.106984
H12   H     H_    0.047341 0.678277 0.807830 0.113534
H13   H     H_    0.391593 0.717708 0.811054 0.139179
H14   H     H_    0.205416 0.574378 0.657634 0.110961
H15   H     H_    0.124206 0.003053 0.573424 0.092869
H16   H     H_    0.176652 0.323855 0.844378 0.103708
H17   H     H_    0.247620 0.106718 0.525335 0.102793
H18   H     H_    0.382543 0.057293 0.499062 0.112023
H19   H     H_    0.285358 0.813914 0.591616 0.127312
H20   H     H_    0.141182 0.855032 0.603378 0.116089
H21   H     H_    0.524828 0.012414 0.701917 0.124922
H22   H     H_    0.522955 0.819088 0.361882 0.127630
H23   H     H_    0.825480 0.173148 0.649227 0.132719
H24   H     H_    0.675583 0.004117 0.394186 0.120268
H25   H     H_    0.859212 0.085835 0.416366 0.130133
H26   H     H_    0.013415 0.099614 0.559411 0.101452
H27   H     H_    0.982162 0.026719 0.677427 0.115643
H28   H     H_    0.019047 0.676909 0.349965 0.107626
H29   H     H_    0.800552 0.949067 0.660037 0.112671
H30   H     H_    0.471126 0.319483 0.859531 0.159160
H31   H     H_    0.468184 0.365149 0.763645 0.165657
H32   H     H_    0.316564 0.376537 0.753906 0.160457
H33   H     H_    0.318535 0.319862 0.840322 0.200070
H34   H     H_    0.976668 0.822582 0.156958 0.131400
H35   H     H_    0.586545 0.463151 0.067226 0.150730
H36   H     H_    0.429685 0.457604 0.054177 0.159626
H37   H     H_    0.635973 0.670676 0.969401 0.187448
H38   H     H_    0.556039 0.568738 0.827962 0.128183
H39   H     H_    0.405870 0.577277 0.826786 -0.014211
H40   H     H_    0.353872 0.677708 0.027080 0.172588
H41   H     H_    0.646980 0.607124 0.111875 0.165295
H42   H     H_    0.494556 0.602709 0.105778 0.183651
H43   H     H_    0.319817 0.140921 0.801310 0.123831
H44   H     H_    0.132766 0.993787 0.729789 0.107452
H45   H     H_    0.155008 0.836783 0.988074 0.101099
H46   H     H_    0.058296 0.989957 0.851229 0.118093
H47   H     H_    0.355337 0.286506 0.119406 0.116409
H48   H     H_    0.427569 0.289611 0.994974 0.115384
H49   H     H_    0.219980 0.012067 0.064557 0.126978
H50   H     H_    0.023572 0.178115 0.198390 0.126627
H51   H     H_    0.858911 0.324150 0.184431 0.113143
H52   H     H_    0.833096 0.948050 0.060164 0.121487
H53   H     H_    0.708092 0.855336 0.112994 0.179033
H54   H     H_    0.781564 0.843349 0.278632 0.126917
H55   H     H_    0.980990 0.936265 0.398905 0.120479
H56   H     H_    0.659350 0.167012 0.831512 0.087911
H57   H     H_    0.107916 0.038669 0.352527 0.117301
H58   H     H_    0.194883 0.751917 0.371463 0.119784
H59   H     H_    0.122519 0.246849 0.943658 0.126617
H60   H     H_    0.623944 0.321163 0.882665 0.094913
H61   H     H_    0.796634 0.677034 0.061699 0.112268
H62   H     H_    0.896452 0.324865 0.619122 0.102687
H63   H     H_    0.506267 0.094689 0.992065 0.100927
N1    N     N_R   0.947080 0.293830 0.002870 -0.041402
N2    N     N_R   0.153670 0.443180 0.946090 -0.038655
N3    N     N_R   0.002360 0.556820 0.208890 -0.038785
N4    N     N_R   0.210070 0.556820 0.002870 -0.047575
N5    N     N_R   0.945960 0.443180 0.152110 -0.039639
N6    N     N_R   0.151710 0.706170 0.208890 -0.042529
N7    N     N_R   0.004320 0.293830 0.946090 -0.041292
N8    N     N_R   0.789930 0.443180 0.997130 -0.036570
N9    N     N_R   0.054040 0.556820 0.847890 -0.040963
N10   N     N_R   0.848290 0.293830 0.791110 -0.041824
N11   N     N_R   0.995680 0.706170 0.053910 -0.041207
N12   N     N_R   0.052920 0.706170 0.997130 -0.041460
N13   N     N_R   0.791050 0.293830 0.847890 -0.038726
N14   N     N_R   0.846330 0.556820 0.053910 -0.038097
N15   N     N_R   0.997640 0.443180 0.791110 -0.040094
N16   N     N_R   0.208950 0.706170 0.152110 -0.040810
Ni1   Ni    Ni4+2 0.869690 0.369690 0.000000 0.211910
Ni2   Ni    Ni4+2 0.130310 0.630310 0.000000 0.219857
Ni3   Ni    Ni4+2 0.000970 0.369690 0.869780 0.215082
Ni4   Ni    Ni4+2 0.999030 0.630310 0.130220 0.213674

loop_
_geom_bond_atom_site_label_1
_geom_bond_atom_site_label_2
_ccdc_geom_bond_type
C25   C31   A    
C66   C68   A    
C63   C65   A    
C27   H11   S    
C58   C62   S    
C6    C45   A    
C64   H58   S    
C27   C29   A    
C41   C42   A    
N14   Ni4   S    
C17   H63   S    
C9    C72   S    
C82   H55   S    
C3    C6    A    
N4    Ni2   S    
C57   H41   S    
N11   N12   A    
C39   C41   A    
C55   H32   S    
C8    C67   A    
C52   N5    A    
C26   C27   A    
C29   C30   A    
C83   C84   A    
C18   C24   A    
N1    N7    A    
C36   C37   A    
C37   H20   S    
C56   N9    A    
C32   C38   A    
C42   C53   S    
C79   C84   A    
C12   C64   A    
C47   H24   S    
C57   C59   S    
C10   C17   A    
C23   C40   A    
C70   H43   S    
C5    H62   S    
N9    Ni2   S    
C60   C62   S    
C18   C19   A    
C73   C74   A    
C55   H33   S    
C78   H34   S    
C34   C52   A    
C16   H16   S    
C13   C14   A    
N7    Ni3   S    
C57   H35   S    
C75   C85   S    
C35   C36   A    
C10   H2    S    
N5    Ni1   S    
C68   C69   A    
N3    Ni4   S    
C52   H51   S    
N10   Ni3   S    
C32   H17   S    
C49   H26   S    
C67   N10   A    
C86   N12   A    
C63   H44   S    
C4    C12   A    
C73   C84   S    
C61   H42   S    
C47   C53   A    
C4    H4    S    
C1    H1    S    
C81   H54   S    
C76   H59   S    
C3    H61   S    
C69   H48   S    
C21   C22   A    
N16   Ni2   S    
C2    H56   S    
C40   N4    A    
C23   C60   S    
C7    C56   A    
C25   H9    S    
C44   C46   A    
N8    Ni1   S    
C81   C82   A    
C54   C59   S    
N15   Ni3   S    
C39   H21   S    
C22   C34   S    
C74   H50   S    
C76   N7    A    
C74   C75   A    
C36   H19   S    
N10   N13   A    
C33   H18   S    
C8    C41   S    
C79   H52   S    
C71   H49   S    
C62   H39   S    
C72   C73   A    
C21   H8    S    
C25   C26   A    
C80   H53   S    
C40   H40   S    
C82   C83   A    
N9    N15   A    
C13   C24   S    
C60   C61   S    
C50   H27   S    
N13   Ni1   S    
C43   C44   A    
C37   C38   A    
C28   H28   S    
C9    C86   A    
C67   H23   S    
C47   C48   A    
C63   C70   A    
N6    N16   A    
C30   C31   A    
C50   C51   A    
C16   N2    A    
C75   C77   A    
C14   H5    S    
C3    N14   A    
C78   N11   A    
C39   C46   A    
N12   Ni2   S    
N11   Ni4   S    
C48   C49   A    
C48   H25   S    
N2    N4    A    
C65   C66   A    
C16   C23   A    
C5    N15   A    
C54   H31   S    
C28   N3    A    
C18   H7    S    
C22   C24   A    
C1    C85   A    
N3    N5    A    
C42   C43   A    
C71   C77   A    
C5    C7    A    
C15   C17   A    
C66   C77   S    
C54   C55   S    
C29   H13   S    
C45   H60   S    
C58   H37   S    
C6    C59   S    
C2    C8    A    
C45   N8    A    
C80   C81   A    
C2    N13   A    
C15   H6    S    
C57   C61   S    
N8    N14   A    
C62   F1    S    
C64   N6    A    
C7    C19   S    
C51   H29   S    
C61   H36   S    
C32   C33   A    
C19   C20   A    
C68   H47   S    
C58   C59   S    
C71   C72   A    
C12   C44   S    
N2    Ni3   S    
C11   C13   A    
C11   H3    S    
C86   H45   S    
C83   H57   S    
N1    Ni1   S    
C30   H14   S    
N6    Ni4   S    
C33   C35   A    
C4    N16   A    
C1    N1    A    
C9    C78   A    
C69   C70   A    
C10   C11   A    
C26   H10   S    
C28   C34   A    
C79   C80   A    
C20   C21   A    
C58   H38   S    
C38   H15   S    
C49   C50   A    
C54   H30   S    
C14   C15   A    
C43   H22   S    
C56   H12   S    
C51   C53   A    
C55   C60   S    
C35   C46   S    
C76   C85   A    
C65   H46   S    
C20   C31   S    
