data_str_m9_o2_o2_f0_sra.sym.44
_audit_creation_date              2012-12-11T16:35:19-0500
_audit_creation_method            fapswitch 2.2
_symmetry_space_group_name_H-M    P1
_symmetry_Int_Tables_number       1
_space_group_crystal_system       triclinic
_cell_length_a                    6.932446
_cell_length_b                    17.710631
_cell_length_c                    19.472708
_cell_angle_alpha                 109.178295
_cell_angle_beta                  90.138371
_cell_angle_gamma                 90.861032
_cell_volume                      2257.8082209

loop_
_atom_site_label
_atom_site_type_symbol
_atom_type_description
_atom_site_fract_x
_atom_site_fract_y
_atom_site_fract_z
_atom_type_partial_charge
O1    O     O_R   0.505700 0.440210 0.561730 -0.543853
O2    O     O_R   0.169350 0.406300 0.412660 -0.540264
O3    O     O_R   0.005650 0.559790 0.438270 -0.537785
C1    C     C_R   0.337698 0.383516 0.384606 0.692482
O4    O     O_R   0.175560 0.430650 0.559600 -0.546803
O5    O     O_R   0.011900 0.584320 0.586250 -0.531999
C2    C     C_R   0.343981 0.416238 0.581763 0.679912
O6    O     O_R   0.499450 0.415680 0.413750 -0.535353
O7    O     O_3   0.341370 0.550390 0.508570 -0.359882
V1    V     V_3+5 0.063940 0.490650 0.498410 1.427260
O8    O     O_R   0.682570 0.593700 0.587340 -0.536014
C3    C     C_R   0.852556 0.615949 0.615351 0.701297
O9    O     O_R   0.676370 0.569350 0.440400 -0.545651
C4    C     C_R   0.845514 0.583955 0.418485 0.699500
V2    V     V_3+5 0.564750 0.509350 0.501590 1.439299
O10   O     O_3   0.837190 0.449610 0.491430 -0.373548
C5    C     C_R   0.036869 0.678831 0.282495 -0.163674
H1    H     H_    0.168454 0.677022 0.252243 0.107510
C6    C     C_R   0.026131 0.633839 0.329611 -0.137557
H2    H     H_    0.150443 0.599784 0.334861 0.114635
C7    C     C_R   0.856751 0.632123 0.368731 -0.034191
C8    C     C_R   0.698337 0.676595 0.359484 -0.077026
H3    H     H_    0.565939 0.677036 0.389019 0.140023
C9    C     C_R   0.710047 0.722632 0.313247 -0.090725
H4    H     H_    0.586787 0.757870 0.309440 0.113243
C10   C     C_R   0.879427 0.724402 0.273864 0.064338
C11   C     C_R   0.727967 0.784883 0.186079 -0.139910
H5    H     H_    0.590605 0.757278 0.190910 0.099047
C12   C     C_R   0.739344 0.831049 0.139975 -0.168763
H6    H     H_    0.610069 0.838421 0.111637 0.122220
C13   C     C_R   0.915505 0.866194 0.129758 -0.050783
C14   C     C_R   0.079755 0.854516 0.167345 -0.159005
H7    H     H_    0.217366 0.881419 0.161417 0.117460
C15   C     C_R   0.067875 0.809278 0.214277 -0.132568
H8    H     H_    0.196623 0.803551 0.243609 0.103574
C16   C     C_R   0.891902 0.773418 0.224193 0.101986
H9    H     H_    0.914237 0.630098 0.936683 0.125185
C17   C     C_R   0.893145 0.907256 0.745380 -0.247665
C18   C     C_R   0.885050 0.922450 0.679010 -0.012910
C19   C     C_R   0.877726 0.857079 0.613238 0.497817
C20   C     C_R   0.869301 0.779247 0.616219 -0.219305
C21   C     C_R   0.874889 0.763647 0.682736 -0.007720
C22   C     C_R   0.890695 0.828812 0.748525 0.051778
C23   C     C_R   0.867238 0.684210 0.684204 -0.142951
C24   C     C_R   0.879738 0.669959 0.751552 0.065652
C25   C     C_R   0.898967 0.735333 0.817561 0.066168
C26   C     C_R   0.904344 0.814800 0.816074 -0.152572
C27   C     C_R   0.873435 0.591202 0.754580 -0.146759
C28   C     C_R   0.885972 0.577334 0.820863 -0.104892
C29   C     C_R   0.904745 0.641194 0.885332 -0.109071
C30   C     C_R   0.911111 0.719420 0.884028 -0.141856
H10   H     H_    0.901519 0.957861 0.795091 0.132024
H11   H     H_    0.859845 0.730480 0.565194 0.151893
H12   H     H_    0.858529 0.539595 0.705907 0.093644
H13   H     H_    0.880925 0.516689 0.822177 0.126764
H14   H     H_    0.925476 0.767116 0.935586 0.092534
H15   H     H_    0.136683 0.461687 0.175657 0.128054
C31   C     C_R   0.435611 0.225078 0.384439 -0.155523
C32   C     C_R   0.490239 0.150273 0.386918 0.125431
C33   C     C_R   0.536890 0.089944 0.322508 -0.138142
C34   C     C_R   0.520284 0.102738 0.255850 -0.181500
C35   C     C_R   0.454953 0.176408 0.251755 0.062430
C36   C     C_R   0.416174 0.239469 0.317598 0.049932
C37   C     C_R   0.419704 0.186624 0.183556 -0.171653
C38   C     C_R   0.341440 0.259765 0.181851 0.053472
C39   C     C_R   0.310272 0.323914 0.247828 0.065330
C40   C     C_R   0.350154 0.314214 0.315827 -0.172585
C41   C     C_R   0.292706 0.270556 0.115095 -0.081109
C42   C     C_R   0.219393 0.342682 0.113209 -0.074854
C43   C     C_R   0.193076 0.405670 0.177428 -0.131005
C44   C     C_R   0.237925 0.396733 0.244094 -0.152410
H16   H     H_    0.399311 0.270531 0.435203 0.093440
H17   H     H_    0.579587 0.031722 0.323510 0.129106
H18   H     H_    0.553525 0.053331 0.207507 0.110412
H19   H     H_    0.310662 0.223543 0.063609 0.142299
H20   H     H_    0.183263 0.349747 0.061564 0.170420
H21   H     H_    0.213487 0.447217 0.292569 0.099598
C45   C     C_R   0.542261 0.311742 0.708368 -0.156007
H22   H     H_    0.683479 0.299517 0.725526 0.106842
C46   C     C_R   0.532076 0.353407 0.658724 -0.162592
H23   H     H_    0.665481 0.372915 0.640535 0.117495
C47   C     C_R   0.353015 0.369706 0.633032 -0.048094
C48   C     C_R   0.183977 0.343296 0.658723 -0.170088
H24   H     H_    0.043362 0.355334 0.640727 0.117082
C49   C     C_R   0.194193 0.301332 0.708437 -0.139316
H25   H     H_    0.061050 0.282542 0.727364 0.112869
C50   C     C_R   0.373755 0.284437 0.733700 0.109501
C51   C     C_R   0.255763 0.173325 0.778327 -0.118226
H26   H     H_    0.142915 0.158719 0.737414 0.110946
C52   C     C_R   0.272608 0.126480 0.823478 -0.142764
H27   H     H_    0.171352 0.077555 0.816763 0.140754
C53   C     C_R   0.420785 0.140375 0.875668 -0.184470
C54   C     C_R   0.555238 0.203997 0.881910 0.454519
C55   C     C_R   0.534847 0.251156 0.836557 -0.209866
H28   H     H_    0.635672 0.300055 0.842252 0.164136
C56   C     C_R   0.386477 0.236446 0.784201 0.017611
O11   O     O_R   0.273230 0.084330 0.086440 -0.544685
O12   O     O_R   0.596660 0.069390 0.940470 -0.497594
O13   O     O_R   0.760270 0.915710 0.913690 -0.539157
C57   C     C_R   0.428591 0.087366 0.921499 0.761931
O14   O     O_R   0.603330 0.093680 0.087390 -0.528630
O15   O     O_R   0.766990 0.940160 0.061660 -0.549766
C58   C     C_R   0.434546 0.117202 0.114971 0.704853
O16   O     O_R   0.266510 0.059870 0.938470 -0.531053
O17   O     O_3   0.431050 0.949630 0.991510 -0.383348
V3    V     V_3+5 0.708490 0.009340 0.001580 1.514048
O18   O     O_R   0.096270 0.930570 0.059390 -0.547781
C59   C     C_R   0.927052 0.915507 0.080977 0.663712
O19   O     O_R   0.089600 0.906290 0.912460 -0.541866
C60   C     C_R   0.919330 0.883234 0.885001 0.690268
V4    V     V_3+5 0.207670 0.990600 0.998190 1.451703
O20   O     O_3   0.935250 0.050360 0.008480 -0.337992
C61   C     C_3   0.887970 0.008739 0.681791 -0.318606
C62   C     C_3   0.691769 0.034609 0.661890 -0.238986
C63   C     C_3   0.706456 0.119053 0.658251 -0.781069
H29   H     H_    0.770035 0.160583 0.709351 0.224834
H30   H     H_    0.796195 0.120260 0.611566 0.239438
H31   H     H_    0.560852 0.139623 0.650931 0.226915
H32   H     H_    0.638031 0.993732 0.608817 0.255702
H33   H     H_    0.584910 0.033466 0.704073 0.181279
H34   H     H_    0.921759 0.048603 0.737705 0.158611
H35   H     H_    0.006145 0.019510 0.647786 0.215814
S1    S     S_3+6 0.878456 0.865787 0.524831 -0.044562
O21   O     O_2   0.678729 0.847092 0.493021 -0.342762
O22   O     O_2   0.940281 0.947079 0.524068 -0.367350
O23   O     O_3   0.030892 0.797993 0.472907 -0.508020
H36   H     H_    0.046660 0.812398 0.428187 0.372051
C64   C     C_3   0.481082 0.133280 0.457726 -0.385888
C65   C     C_3   0.270822 0.117120 0.473931 -0.282561
C66   C     C_3   0.251820 0.105339 0.547570 -0.713066
H37   H     H_    0.342929 0.055324 0.550270 0.254175
H38   H     H_    0.293893 0.161256 0.591265 0.218488
H39   H     H_    0.099527 0.091196 0.556041 0.242647
H40   H     H_    0.179581 0.168220 0.473832 0.188166
H41   H     H_    0.215443 0.062494 0.431053 0.218580
H42   H     H_    0.569221 0.080376 0.454905 0.200109
H43   H     H_    0.541841 0.185225 0.502261 0.177424
S2    S     S_3+6 0.751021 0.227493 0.944748 -0.033264
O24   O     O_2   0.901212 0.164388 0.918648 -0.349805
O25   O     O_2   0.839709 0.307352 0.950480 -0.351544
O26   O     O_3   0.675729 0.230215 0.027442 -0.525050
H44   H     H_    0.794775 0.237640 0.057341 0.355991

loop_
_geom_bond_atom_site_label_1
_geom_bond_atom_site_label_2
_ccdc_geom_bond_type
C45   C50   A    
C37   C58   S    
C51   C56   A    
C54   C55   A    
C11   C12   A    
C13   C59   S    
C66   H38   S    
C6    H2    S    
C1    O6    A    
C64   C65   S    
C65   C66   S    
C62   C63   S    
S1    O21   D    
V3    O20   S    
C49   H25   S    
C41   H19   S    
C27   H12   S    
C12   H6    S    
C48   H24   S    
C5    C10   A    
C4    C7    S    
C7    C8    A    
C6    C7    A    
C9    C10   A    
C30   H14   S    
C42   C43   A    
O19   V4    S    
O5    C3    A    
C17   C18   A    
O11   V4    S    
C45   C46   A    
S1    O22   D    
C17   H10   S    
C63   H29   S    
C33   H17   S    
C57   O16   A    
C42   H20   S    
C15   H8    S    
C20   C21   A    
O13   V3    S    
C35   C37   A    
C54   S2    S    
C65   H41   S    
O8    V2    S    
C61   H35   S    
V4    O20   S    
C41   C42   A    
C18   C61   S    
O18   C59   A    
O15   C59   A    
C43   C44   A    
O1    V2    S    
H15   C43   S    
O7    V1    S    
C62   H32   S    
C38   C41   A    
C39   C40   A    
O17   V4    S    
C32   C33   A    
O14   C58   A    
O9    C4    A    
C55   H28   S    
C21   C23   A    
C5    H1    S    
C49   C50   A    
C36   C40   A    
C9    H4    S    
C46   C47   A    
C18   C19   A    
O4    C2    A    
C45   H22   S    
S1    O23   S    
C63   H30   S    
C32   C64   S    
C28   H13   S    
O13   C60   A    
C25   C30   A    
C33   C34   A    
C14   C15   A    
O2    C1    A    
C64   H43   S    
C35   C36   A    
C1    C40   S    
C52   C53   A    
C39   C44   A    
C63   H31   S    
C50   C56   S    
C29   C30   A    
C55   C56   A    
C20   H11   S    
O11   C58   A    
O3    C4    A    
S2    O25   D    
C10   C16   S    
C19   C20   A    
C48   C49   A    
C51   C52   A    
C38   C39   A    
O6    V2    S    
O12   C57   A    
O9    V2    S    
C11   C16   A    
C28   C29   A    
C8    C9    A    
C66   H39   S    
C21   C22   A    
O2    V1    S    
C44   H21   S    
C23   C24   A    
C53   C57   S    
C61   C62   S    
C24   C27   A    
O14   V3    S    
C19   S1    S    
C25   C26   A    
C27   C28   A    
O1    C2    A    
O18   V4    S    
C13   C14   A    
C31   C36   A    
C46   H23   S    
S2    O26   S    
O5    V1    S    
O16   V4    S    
O8    C3    A    
C34   H18   S    
C26   C60   S    
O17   V3    S    
O12   V3    S    
C14   H7    S    
C64   H42   S    
C66   H37   S    
C31   C32   A    
C17   C22   A    
C12   C13   A    
O3    V1    S    
V1    O10   S    
O26   H44   S    
C37   C38   A    
H9    C29   S    
C31   H16   S    
C52   H27   S    
O23   H36   S    
C53   C54   A    
C5    C6    A    
O15   V3    S    
C15   C16   A    
O7    V2    S    
C34   C35   A    
S2    O24   D    
C65   H40   S    
C24   C25   A    
O4    V1    S    
C2    C47   S    
C61   H34   S    
C51   H26   S    
C3    C23   S    
C47   C48   A    
C11   H5    S    
C8    H3    S    
O19   C60   A    
C22   C26   A    
C62   H33   S    
V2    O10   S    
