data_str_m2_o1_o2_f0_pcu.sym.73
_audit_creation_date              2012-10-26T19:46:31-0400
_audit_creation_method            fapswitch 2.2
_symmetry_space_group_name_H-M    P1
_symmetry_Int_Tables_number       1
_space_group_crystal_system       triclinic
_cell_length_a                    10.837877
_cell_length_b                    9.735976
_cell_length_c                    15.070285
_cell_angle_alpha                 89.42525
_cell_angle_beta                  97.490056
_cell_angle_gamma                 90.479242
_cell_volume                      1576.48850395

loop_
_atom_site_label
_atom_site_type_symbol
_atom_type_description
_atom_site_fract_x
_atom_site_fract_y
_atom_site_fract_z
_atom_type_partial_charge
C1    C     C_R   0.262719 0.500245 0.500325 0.540829
C2    C     C_R   0.934406 0.626785 0.485552 -0.146821
C3    C     C_R   0.936695 0.379883 0.506013 -0.152896
C4    C     C_R   0.062687 0.626302 0.485966 -0.144760
C5    C     C_R   0.589384 0.571517 0.103123 0.246576
C6    C     C_R   0.522507 0.374666 0.909099 0.256700
C7    C     C_R   0.460402 0.615454 0.902452 0.246829
C8    C     C_R   0.406762 0.419426 0.089029 0.248438
C9    C     C_R   0.585295 0.577966 0.195472 -0.150310
C10   C     C_R   0.519435 0.375795 0.816070 -0.146567
C11   C     C_R   0.460750 0.615298 0.810078 -0.137915
C12   C     C_R   0.737028 0.500800 0.498331 0.539557
C13   C     C_R   0.411496 0.418220 0.182250 -0.150246
C14   C     C_R   0.497985 0.500080 0.234576 -0.073533
C15   C     C_R   0.493325 0.497022 0.766603 -0.081355
C16   C     C_R   0.497474 0.494706 0.049891 0.082699
C17   C     C_R   0.493977 0.495225 0.952450 0.097098
C18   C     C_R   0.870807 0.502779 0.495853 0.020699
C19   C     C_R   0.128606 0.502694 0.500815 0.021103
C20   C     C_3   0.314716 0.146555 0.377991 -0.234100
C21   C     C_3   0.184876 0.121316 0.405429 -0.450888
C22   C     C_3   0.669404 0.847750 0.631982 -0.224988
C23   C     C_R   0.499076 0.500376 0.330693 0.545121
C24   C     C_3   0.643623 0.864429 0.728939 -0.441266
C25   C     C_3   0.672087 0.149923 0.631766 -0.231899
C26   C     C_3   0.811777 0.123323 0.633296 -0.469005
C27   C     C_3   0.355773 0.853868 0.354474 -0.231489
C28   C     C_3   0.429609 0.862096 0.274256 -0.409486
C29   C     C_3   0.800496 0.602430 0.098443 -0.000314
C30   C     C_3   0.871787 0.721889 0.147557 -0.258626
C31   C     C_3   0.998673 0.676713 0.194146 -0.496809
C32   C     C_3   0.665542 0.208916 0.959211 -0.010539
C33   C     C_3   0.666533 0.052050 0.957693 -0.224962
C34   C     C_R   0.498193 0.499257 0.669749 0.546021
C35   C     C_3   0.797495 0.997511 0.955327 -0.495128
C36   C     C_3   0.310472 0.724303 0.969634 0.006064
C37   C     C_3   0.243488 0.861188 0.952260 -0.249861
C38   C     C_3   0.115723 0.857064 0.984468 -0.504901
C39   C     C_3   0.196252 0.374847 0.049208 0.000144
C40   C     C_3   0.133425 0.248852 0.085759 -0.249858
C41   C     C_3   0.002862 0.282114 0.106231 -0.501025
C42   C     C_R   0.417538 0.073921 0.439978 0.142496
C43   C     C_R   0.579411 0.925090 0.562556 0.137068
C44   C     C_R   0.583031 0.074003 0.560530 0.137715
C45   C     C_R   0.424343 0.926352 0.435861 0.136747
C46   C     C_R   0.064931 0.381233 0.514937 -0.152575
Cu1   Cu    Cu3+1 0.500000 0.640660 0.500000 0.881599
Cu2   Cu    Cu3+1 0.500000 0.359340 0.500000 0.893964
H1    H     H_    0.652220 0.640032 0.237265 0.123786
H2    H     H_    0.125961 0.212307 0.386601 0.139822
H3    H     H_    0.134650 0.034621 0.369891 0.119798
H4    H     H_    0.327845 0.256850 0.375499 0.211023
H5    H     H_    0.315003 0.117780 0.307261 0.098407
H6    H     H_    0.546951 0.899200 0.731878 0.157369
H7    H     H_    0.658746 0.765491 0.765805 0.149033
H8    H     H_    0.709854 0.937664 0.765253 0.130688
H9    H     H_    0.670595 0.739030 0.620868 0.218423
H10   H     H_    0.766901 0.871219 0.624167 0.102353
H11   H     H_    0.832418 0.081361 0.568631 0.145098
H12   H     H_    0.538241 0.281606 0.783066 0.133093
H13   H     H_    0.865385 0.219916 0.648154 0.132128
H14   H     H_    0.847665 0.053696 0.689109 0.135154
H15   H     H_    0.665673 0.259493 0.624158 0.221150
H16   H     H_    0.643769 0.131273 0.698665 0.106041
H17   H     H_    0.529324 0.838388 0.294557 0.179903
H18   H     H_    0.389785 0.788418 0.222233 0.135852
H19   H     H_    0.425171 0.966121 0.243634 0.133308
H20   H     H_    0.330372 0.748115 0.369717 0.200684
H21   H     H_    0.263080 0.895126 0.332379 0.091234
H22   H     H_    0.849671 0.573395 0.041225 0.134270
H23   H     H_    0.433198 0.707508 0.772303 0.151299
H24   H     H_    0.803528 0.509901 0.143169 0.117730
H25   H     H_    0.885678 0.804883 0.098873 0.162510
H26   H     H_    0.817573 0.764690 0.198284 0.162723
H27   H     H_    0.987397 0.596892 0.245739 0.152544
H28   H     H_    0.048590 0.766201 0.227438 0.138074
H29   H     H_    0.055475 0.635188 0.144566 0.132120
H30   H     H_    0.719845 0.245050 0.022448 0.137851
H31   H     H_    0.712666 0.248286 0.902305 0.105011
H32   H     H_    0.629507 0.010497 0.018023 0.205433
H33   H     H_    0.605135 0.015742 0.897538 0.186595
H34   H     H_    0.345795 0.356604 0.213903 0.109067
H35   H     H_    0.837703 0.040306 0.896711 0.132910
H36   H     H_    0.793971 0.883860 0.949858 0.177192
H37   H     H_    0.858451 0.026023 0.017453 0.138511
H38   H     H_    0.320228 0.701152 0.042578 0.134320
H39   H     H_    0.251096 0.642531 0.933627 0.116718
H40   H     H_    0.300257 0.944686 0.987518 0.200176
H41   H     H_    0.231940 0.884233 0.879262 0.168922
H42   H     H_    0.059195 0.769810 0.953931 0.143444
H43   H     H_    0.065867 0.953719 0.964542 0.144560
H44   H     H_    0.125989 0.846845 0.058511 0.146092
H45   H     H_    0.113890 0.287163 0.532652 0.129987
H46   H     H_    0.143905 0.403366 0.983340 0.136633
H47   H     H_    0.189505 0.464795 0.093617 0.095035
H48   H     H_    0.127521 0.165784 0.035482 0.169945
H49   H     H_    0.189558 0.210727 0.147873 0.157733
H50   H     H_    0.007277 0.362323 0.158421 0.144273
H51   H     H_    0.959334 0.188497 0.131582 0.141755
H52   H     H_    0.944316 0.318806 0.044726 0.129178
H53   H     H_    0.885327 0.723374 0.476146 0.124869
H54   H     H_    0.889464 0.282677 0.507678 0.134485
H55   H     H_    0.109886 0.722417 0.475302 0.124104
H56   H     H_    0.190924 0.100662 0.478398 0.155078
N1    N     N_R   0.500000 0.852070 0.500000 -0.245271
N2    N     N_R   0.500000 0.147930 0.500000 -0.244823
O1    O     O_R   0.319640 0.618740 0.499990 -0.518354
O2    O     O_3   0.541136 0.252863 0.956967 -0.537284
O3    O     O_3   0.430582 0.735784 0.942714 -0.556597
O4    O     O_3   0.319307 0.341648 0.035182 -0.539597
O5    O     O_R   0.680360 0.381260 0.500010 -0.514155
O6    O     O_R   0.680360 0.618740 0.500010 -0.531196
O7    O     O_R   0.319640 0.381260 0.499990 -0.512351
O8    O     O_R   0.499990 0.618780 0.371460 -0.513126
O9    O     O_R   0.500010 0.381220 0.628540 -0.521496
O10   O     O_R   0.500010 0.618780 0.628540 -0.510482
O11   O     O_R   0.499990 0.381220 0.371460 -0.509671
O12   O     O_3   0.678557 0.644514 0.063335 -0.556438

loop_
_geom_bond_atom_site_label_1
_geom_bond_atom_site_label_2
_ccdc_geom_bond_type
Cu1   O8    S    
C8    C13   A    
C2    C18   A    
C37   H40   S    
C28   H18   S    
C12   O6    A    
C43   C44   A    
C22   H9    S    
C19   C46   A    
C24   H7    S    
C7    C11   A    
C37   C38   S    
C36   C37   S    
C26   H13   S    
C10   C15   A    
C43   N1    A    
C30   C31   S    
C30   H26   S    
C11   H23   S    
C34   O10   A    
Cu1   O6    S    
C4    H55   S    
C38   H44   S    
C3    C18   A    
C25   H15   S    
C5    C16   A    
C27   H20   S    
C21   H56   S    
C11   C15   A    
C39   O4    S    
Cu2   N2    S    
Cu1   Cu2   S    
C16   C17   S    
C7    C17   A    
C41   H51   S    
C26   H11   S    
C15   C34   S    
C27   H21   S    
C29   H24   S    
C27   C45   S    
C8    C16   A    
C13   C14   A    
C4    C19   A    
C1    O7    A    
C40   H48   S    
C25   C44   S    
C21   H2    S    
C45   N1    A    
C31   H29   S    
C36   H39   S    
Cu1   O10   S    
C1    C19   S    
C28   H19   S    
C9    H1    S    
C40   H49   S    
C30   H25   S    
C35   H35   S    
C2    H53   S    
C36   H38   S    
C25   C26   S    
C38   H43   S    
C7    O3    S    
C25   H16   S    
C14   C23   S    
C24   H6    S    
C2    C4    A    
C9    C14   A    
C39   H46   S    
C5    C9    A    
C29   C30   S    
C8    O4    S    
C31   H27   S    
C22   C43   S    
C41   H52   S    
C42   N2    A    
C39   H47   S    
C1    O1    A    
Cu2   O9    S    
C3    H54   S    
C40   C41   S    
Cu1   O1    S    
C22   C24   S    
C23   O11   A    
C21   H3    S    
C29   H22   S    
C6    C17   A    
C10   H12   S    
C20   H5    S    
C36   O3    S    
C22   H10   S    
C20   C42   S    
C35   H36   S    
C33   H32   S    
Cu2   O11   S    
C44   N2    A    
C24   H8    S    
C29   O12   S    
C38   H42   S    
C3    C46   A    
C37   H41   S    
C5    O12   S    
C32   C33   S    
C28   H17   S    
C34   O9    A    
C20   H4    S    
C32   H31   S    
C35   H37   S    
C31   H28   S    
C46   H45   S    
C13   H34   S    
C33   C35   S    
C26   H14   S    
C6    C10   A    
C32   H30   S    
C39   C40   S    
Cu2   O5    S    
C20   C21   S    
C32   O2    S    
C12   C18   S    
C27   C28   S    
C6    O2    S    
C41   H50   S    
Cu1   N1    S    
C33   H33   S    
C42   C45   A    
C12   O5    A    
Cu2   O7    S    
C23   O8    A    
