data_str_m4_o12_o15_f0_acs.sym.216
_audit_creation_date              2013-03-05T15:41:27-0500
_audit_creation_method            fapswitch 2.2
_symmetry_space_group_name_H-M    P1
_symmetry_Int_Tables_number       1
_space_group_crystal_system       triclinic
_cell_length_a                    11.605891
_cell_length_b                    18.623209
_cell_length_c                    9.930834
_cell_angle_alpha                 90.00001
_cell_angle_beta                  110.742918
_cell_angle_gamma                 90.000014
_cell_volume                      2007.30548082

loop_
_atom_site_label
_atom_site_type_symbol
_atom_site_description
_atom_site_fract_x
_atom_site_fract_y
_atom_site_fract_z
_atom_type_partial_charge
O1    O     O_R   0.267710 0.668200 0.902110 -0.549883
O2    O     O_R   0.732290 0.331800 0.097890 -0.549884
O3    O     O_R   0.732290 0.168200 0.097890 -0.549882
O4    O     O_R   0.267710 0.831800 0.902110 -0.549882
O5    O     O_R   0.099480 0.674460 0.038850 -0.501110
O6    O     O_R   0.900520 0.325540 0.961150 -0.501110
O7    O     O_R   0.900520 0.174460 0.961150 -0.501110
O8    O     O_R   0.099480 0.825540 0.038850 -0.501110
C1    C     C_R   0.073802 0.645930 0.140452 0.580845
C2    C     C_R   0.926198 0.354070 0.859548 0.580846
C3    C     C_R   0.926198 0.145930 0.859548 0.580846
C4    C     C_R   0.073802 0.854070 0.140452 0.580845
O9    O     O_R   0.116720 0.669210 0.267660 -0.513442
O10   O     O_R   0.883280 0.330790 0.732340 -0.513442
O11   O     O_R   0.883280 0.169210 0.732340 -0.513442
O12   O     O_R   0.116720 0.830790 0.267660 -0.513443
O13   O     O_R   0.366710 0.675440 0.427590 -0.522021
O14   O     O_R   0.633290 0.324560 0.572410 -0.522021
O15   O     O_R   0.633290 0.175440 0.572410 -0.522021
O16   O     O_R   0.366710 0.824560 0.427590 -0.522021
C5    C     C_R   0.469549 0.646912 0.443516 0.526620
C6    C     C_R   0.530451 0.353088 0.556484 0.526620
C7    C     C_R   0.530451 0.146912 0.556484 0.526620
C8    C     C_R   0.469549 0.853088 0.443516 0.526620
O17   O     O_R   0.534870 0.669390 0.371760 -0.473927
O18   O     O_R   0.465130 0.330610 0.628240 -0.473928
O19   O     O_R   0.465130 0.169390 0.628240 -0.473928
O20   O     O_R   0.534870 0.830610 0.371760 -0.473926
O21   O     O_R   0.453080 0.674480 0.075160 -0.419401
O22   O     O_R   0.546920 0.325520 0.924840 -0.419399
O23   O     O_R   0.546920 0.174480 0.924840 -0.419402
O24   O     O_R   0.453080 0.825520 0.075160 -0.419403
C9    C     C_R   0.377324 0.646417 0.960291 0.550172
C10   C     C_R   0.622676 0.353583 0.039709 0.550175
C11   C     C_R   0.622676 0.146417 0.039709 0.550172
C12   C     C_R   0.377324 0.853583 0.960291 0.550169
Cr1   Cr    Cr6+3 0.187610 0.750000 0.979860 1.018405
Cr2   Cr    Cr6+3 0.812390 0.250000 0.020140 1.018406
Cr3   Cr    Cr6+3 0.245810 0.750000 0.341640 1.018049
Cr4   Cr    Cr6+3 0.754190 0.250000 0.658360 1.018050
Cr5   Cr    Cr6+3 0.485760 0.750000 0.219910 1.165949
Cr6   Cr    Cr6+3 0.514240 0.250000 0.780090 1.165952
O25   O     O_3   0.306390 0.750000 0.180470 -0.270370
O26   O     O_3   0.693610 0.250000 0.819530 -0.270371
C13   C     C_R   0.505654 0.424865 0.488580 -0.029582
C14   C     C_R   0.494346 0.575135 0.511421 -0.029582
C15   C     C_R   0.494346 0.924865 0.511421 -0.029581
C16   C     C_R   0.505654 0.075135 0.488579 -0.029582
C17   C     C_R   0.283543 0.417659 0.443227 -0.030929
C18   C     C_R   0.716458 0.582341 0.556774 -0.030927
C19   C     C_R   0.716457 0.917659 0.556775 -0.030926
C20   C     C_R   0.283543 0.082341 0.443226 -0.030927
C21   C     C_R   0.177228 0.448406 0.452624 -0.082279
C22   C     C_R   0.822772 0.551594 0.547377 -0.082279
C23   C     C_R   0.822772 0.948406 0.547378 -0.082279
C24   C     C_R   0.177228 0.051594 0.452622 -0.082279
C25   C     C_R   0.180163 0.518684 0.500809 -0.096995
C26   C     C_R   0.819838 0.481316 0.499192 -0.096995
C27   C     C_R   0.819838 0.018684 0.499193 -0.096996
C28   C     C_R   0.180162 0.981316 0.500807 -0.096995
C29   C     C_R   0.286626 0.559836 0.529554 -0.056939
C30   C     C_R   0.713374 0.440164 0.470447 -0.056940
C31   C     C_R   0.713374 0.059836 0.470448 -0.056940
C32   C     C_R   0.286626 0.940164 0.529553 -0.056939
C33   C     C_R   0.391895 0.531793 0.506967 0.013175
C34   C     C_R   0.608105 0.468207 0.493034 0.013175
C35   C     C_R   0.608105 0.031793 0.493034 0.013175
C36   C     C_R   0.391895 0.968207 0.506966 0.013175
C37   C     C_R   0.393623 0.457873 0.477888 0.033445
C38   C     C_R   0.606377 0.542127 0.522113 0.033447
C39   C     C_R   0.606377 0.957873 0.522113 0.033448
C40   C     C_R   0.393623 0.042127 0.477887 0.033446
H1    H     H_    0.093901 0.416869 0.427418 0.105198
H2    H     H_    0.906099 0.583131 0.572583 0.105198
H3    H     H_    0.906099 0.916869 0.572584 0.105198
H4    H     H_    0.093901 0.083131 0.427416 0.105198
H5    H     H_    0.099734 0.541530 0.515582 0.102461
H6    H     H_    0.900267 0.458470 0.484419 0.102461
H7    H     H_    0.900267 0.041530 0.484420 0.102461
H8    H     H_    0.099733 0.958470 0.515580 0.102461
H9    H     H_    0.279883 0.362133 0.409454 0.123827
H10   H     H_    0.720117 0.637867 0.590546 0.123827
H11   H     H_    0.720117 0.862133 0.590547 0.123827
H12   H     H_    0.279883 0.137866 0.409454 0.123827
H13   H     H_    0.286351 0.612910 0.573462 0.138855
H14   H     H_    0.713649 0.387090 0.426539 0.138855
H15   H     H_    0.713649 0.112910 0.426539 0.138855
H16   H     H_    0.286351 0.887090 0.573461 0.138855
C41   C     C_2   0.402774 0.924210 0.916597 -0.094724
C42   C     C_2   0.597225 0.075790 0.083404 -0.094724
C43   C     C_2   0.597225 0.424210 0.083404 -0.094722
C44   C     C_2   0.402773 0.575789 0.916598 -0.094724
C45   C     C_2   0.503324 0.960484 0.995583 0.161308
C46   C     C_2   0.496674 0.039517 0.004418 0.161307
C47   C     C_2   0.496674 0.460483 0.004419 0.161306
C48   C     C_2   0.503324 0.539515 0.995583 0.161306
H17   H     H_    0.677000 0.048052 0.156416 0.128385
H18   H     H_    0.322998 0.951948 0.843586 0.128387
H19   H     H_    0.322997 0.548051 0.843588 0.128386
H20   H     H_    0.677001 0.451948 0.156414 0.128385
H21   H     H_    0.932150 0.056055 0.062899 0.159702
H22   H     H_    0.067851 0.943945 0.937102 0.159701
H23   H     H_    0.067850 0.556055 0.937101 0.159701
H24   H     H_    0.932150 0.443945 0.062899 0.159702
C49   C     C_2   0.011906 0.922787 0.114084 -0.072763
C50   C     C_2   0.988094 0.077213 0.885916 -0.072764
C51   C     C_2   0.988094 0.422787 0.885916 -0.072767
C52   C     C_2   0.011906 0.577213 0.114084 -0.072765
C53   C     C_2   0.021983 0.963509 0.008465 -0.148357
C54   C     C_2   0.978017 0.036491 0.991535 -0.148357
C55   C     C_2   0.978018 0.463509 0.991535 -0.148359
C56   C     C_2   0.021982 0.536491 0.008465 -0.148359
H25   H     H_    0.028393 0.056426 0.810188 0.123257
H26   H     H_    0.971607 0.943574 0.189812 0.123257
H27   H     H_    0.971607 0.556426 0.189812 0.123256
H28   H     H_    0.028393 0.443574 0.810188 0.123256
N1    N     N_R   0.384091 0.077315 0.927535 0.063648
O27   O     O_R   0.336500 0.120450 0.996839 -0.337205
O28   O     O_R   0.339896 0.076925 0.787539 -0.347356
N2    N     N_R   0.615907 0.922686 0.072466 0.063648
O29   O     O_R   0.663505 0.879557 0.003159 -0.337211
O30   O     O_R   0.660098 0.923072 0.212462 -0.347351
N3    N     N_R   0.615907 0.577314 0.072464 0.063648
O31   O     O_R   0.663496 0.620449 0.003160 -0.337207
O32   O     O_R   0.660101 0.576926 0.212461 -0.347355
N4    N     N_R   0.384091 0.422684 0.927538 0.063647
O33   O     O_R   0.336510 0.379543 0.996840 -0.337201
O34   O     O_R   0.339895 0.423075 0.787542 -0.347357

loop_
_geom_bond_atom_site_label_1
_geom_bond_atom_site_label_2
_geom_bond_distance
_ccdc_geom_bond_type
C12   C41   1.447876 S    
C26   C30   1.394883 A    
O4    C12   1.263389 A    
N4    O33   1.301264 A    
C24   H4    1.082301 S    
O23   Cr6   1.949888 S    
O5    Cr1   1.947533 S    
C47   C48   1.478083 S    
O19   Cr6   2.060035 S    
O1    C9    1.263388 A    
N3    O31   1.301270 A    
C1    C52   1.445351 S    
O7    C3    1.265779 A    
C30   H14   1.080783 S    
O18   Cr6   2.060034 S    
C45   C46   1.478084 S    
C19   C39   1.414231 A    
C32   C36   1.417681 A    
C52   H27   1.087816 S    
C23   C27   1.389802 A    
N1    O28   1.300344 A    
C50   C54   1.332607 D    
C4    C49   1.445352 S    
C46   N1    1.441899 S    
C33   C37   1.408191 A    
N3    O32   1.300345 A    
O21   C9    1.279454 A    
O20   Cr5   2.060033 S    
C44   C48   1.336063 D    
O13   Cr3   1.943473 S    
C17   H9    1.083281 S    
C20   H12   1.083281 S    
O14   Cr4   1.943471 S    
C10   C43   1.447875 S    
C1    O9    1.259454 A    
C22   H2    1.082300 S    
C3    O11   1.259454 A    
C4    O12   1.259454 A    
O3    Cr2   2.071116 S    
N4    O34   1.300345 A    
O24   Cr5   1.949886 S    
O6    Cr2   1.947532 S    
C45   N2    1.441898 S    
C7    O19   1.280793 A    
C43   H20   1.083636 S    
C42   H17   1.083637 S    
C19   C23   1.393052 A    
C48   N3    1.441901 S    
O1    Cr1   2.071116 S    
C23   H3    1.082300 S    
O2    C10   1.263388 A    
C17   C37   1.414232 A    
Cr5   O25   1.977250 S    
C2    C51   1.445351 S    
Cr6   O26   1.977250 S    
C16   C40   1.407814 A    
O8    C4    1.265778 A    
N2    O30   1.300346 A    
Cr2   O26   1.980897 S    
C42   C46   1.336063 D    
O11   Cr4   2.066017 S    
C31   C35   1.417679 A    
O9    Cr3   2.066017 S    
O22   C10   1.279454 A    
C50   H25   1.087816 S    
C13   C37   1.407815 A    
C25   H5    1.082073 S    
C49   H26   1.087816 S    
C14   C33   1.424790 A    
C2    O10   1.259454 A    
C9    C44   1.447876 S    
O17   Cr5   2.060035 S    
O16   Cr3   1.943471 S    
C30   C34   1.417680 A    
Cr3   O25   1.962961 S    
H21   C54   1.088864 S    
C43   C47   1.336064 D    
O13   C5    1.264158 A    
C52   C56   1.332608 D    
H23   C56   1.088862 S    
Cr1   O25   1.980897 S    
O15   C7    1.264157 A    
O5    C1    1.265779 A    
C20   C40   1.414231 A    
O2    Cr2   2.071115 S    
O3    C11   1.263389 A    
C36   C40   1.408191 A    
C3    C50   1.445352 S    
C18   C22   1.393052 A    
C15   C39   1.407813 A    
C29   H13   1.080782 S    
O23   C11   1.279453 A    
O8    Cr1   1.947532 S    
C27   H7    1.082073 S    
C19   H11   1.083283 S    
C15   C36   1.424790 A    
N2    O29   1.301282 A    
C18   H10   1.083281 S    
C5    C14   1.478816 S    
C22   C26   1.389801 A    
C5    O17   1.280794 A    
C28   H8    1.082073 S    
C21   C25   1.389801 A    
C7    C16   1.478818 S    
C55   C56   1.440546 S    
C31   H15   1.080782 S    
O14   C6    1.264157 A    
C8    C15   1.478817 S    
C51   C55   1.332608 D    
C21   H1    1.082301 S    
C8    O20   1.280795 A    
O6    C2    1.265779 A    
H24   C55   1.088864 S    
O24   C12   1.279454 A    
C25   C29   1.394883 A    
C27   C31   1.394883 A    
C41   H18   1.083636 S    
C28   C32   1.394882 A    
C18   C38   1.414232 A    
N1    O27   1.301286 A    
C47   N4    1.441903 S    
C34   C38   1.408191 A    
C49   C53   1.332608 D    
C17   C21   1.393054 A    
O7    Cr2   1.947533 S    
C32   H16   1.080781 S    
C35   C39   1.408191 A    
C16   C35   1.424791 A    
C41   C45   1.336062 D    
C51   H28   1.087817 S    
C14   C38   1.407815 A    
O15   Cr4   1.943472 S    
C26   H6    1.082075 S    
O12   Cr3   2.066016 S    
O10   Cr4   2.066015 S    
C11   C42   1.447876 S    
C29   C33   1.417679 A    
Cr4   O26   1.962962 S    
C6    C13   1.478818 S    
C24   C28   1.389802 A    
O4    Cr1   2.071114 S    
C6    O18   1.280793 A    
C13   C34   1.424790 A    
O21   Cr5   1.949887 S    
O22   Cr6   1.949886 S    
H22   C53   1.088863 S    
C53   C54   1.440546 S    
O16   C8    1.264157 A    
C20   C24   1.393051 A    
C44   H19   1.083635 S    
