data_str_m3_o4_o5_f0_pcu.sym.126
_audit_creation_date              2013-03-05T16:45:21-0500
_audit_creation_method            fapswitch 2.2
_symmetry_space_group_name_H-M    P1
_symmetry_Int_Tables_number       1
_space_group_crystal_system       triclinic
_cell_length_a                    8.930903
_cell_length_b                    10.808034
_cell_length_c                    9.929335
_cell_angle_alpha                 89.04105
_cell_angle_beta                  89.754651
_cell_angle_gamma                 90.863998
_cell_volume                      958.181012021

loop_
_atom_site_label
_atom_site_type_symbol
_atom_site_description
_atom_site_fract_x
_atom_site_fract_y
_atom_site_fract_z
_atom_type_partial_charge
O1    O     O_R   0.500020 0.316790 0.614690 -0.637943
O2    O     O_R   0.500000 0.316760 0.385350 -0.627818
C1    C     C_R   0.495661 0.260302 0.500756 0.873501
O3    O     O_R   0.285350 0.500020 0.614650 -0.631372
O4    O     O_R   0.285340 0.499980 0.385310 -0.582722
C2    C     C_R   0.218861 0.499638 0.500159 0.939551
Zn1   Zn    Zn3+2 0.500010 0.500020 0.653130 0.971881
Zn2   Zn    Zn3+2 0.499990 0.499980 0.346870 1.004242
O5    O     O_R   0.500000 0.683240 0.614650 -0.614884
O6    O     O_R   0.499980 0.683210 0.385310 -0.561950
O7    O     O_R   0.714660 0.500020 0.614690 -0.583751
O8    O     O_R   0.714650 0.499980 0.385350 -0.632294
C3    C     C_R   0.497243 0.739603 0.498509 0.936320
C4    C     C_R   0.781125 0.499913 0.499812 0.940829
C5    C     C_1   0.065383 0.499491 0.500180 -0.164217
C6    C     C_1   0.934601 0.499590 0.499629 -0.179456
C7    C     C_R   0.547596 0.061058 0.608778 -0.009119
C8    C     C_R   0.492669 0.128225 0.499832 -0.159281
C9    C     C_R   0.448790 0.067076 0.382805 -0.252503
H1    H     H_    0.406702 0.118403 0.296609 0.178181
C10   C     C_R   0.445806 0.938665 0.380413 0.337135
C11   C     C_R   0.498877 0.871802 0.493877 -0.249694
C12   C     C_R   0.559117 0.934771 0.602727 -0.014828
C13   C     C_3   0.526149 0.914987 0.749547 0.185217
C14   C     C_3   0.496722 0.053780 0.754118 0.283378
H2    H     H_    0.427410 0.853521 0.769282 0.110776
C15   C     C_R   0.371293 0.479092 0.072268 0.205719
N1    N     N_R   0.499010 0.499140 0.142800 -0.135276
C16   C     C_R   0.623336 0.534788 0.072018 -0.149730
H3    H     H_    0.722988 0.562306 0.126092 0.169089
C17   C     C_R   0.624726 0.534505 0.928587 0.258366
N2    N     N_R   0.499010 0.499180 0.857150 -0.124817
C18   C     C_R   0.369794 0.482264 0.930194 0.134391
C19   C     C_3   0.268128 0.372041 0.927037 -0.589004
C20   C     C_3   0.276401 0.365243 0.080239 -0.008904
H4    H     H_    0.156532 0.394171 0.886216 0.220382
H5    H     H_    0.322860 0.295106 0.877548 0.202377
H6    H     H_    0.337352 0.284026 0.121425 0.154897
N3    N     N_2   0.135515 0.387034 0.148258 -0.264071
H7    H     H_    0.085492 0.470326 0.126582 0.245757
C21   C     C_3   0.034302 0.281636 0.156983 -0.751216
H8    H     H_    0.934134 0.305862 0.217153 0.243106
H9    H     H_    0.090080 0.202327 0.207473 0.255509
H10   H     H_    0.998065 0.254391 0.054756 0.235301
N4    N     N_R   0.376168 0.879021 0.268429 0.221487
O9    O     O_R   0.260177 0.806499 0.288008 -0.393040
O10   O     O_R   0.411576 0.913647 0.146300 -0.382274
N5    N     N_R   0.658430 0.876353 0.824938 0.211662
O11   O     O_R   0.651859 0.867173 0.955578 -0.351937
O12   O     O_R   0.782204 0.849103 0.762933 -0.426699
N6    N     N_2   0.336907 0.078202 0.766895 -0.360599
H11   H     H_    0.300293 0.158120 0.720686 0.228025
C22   C     C_3   0.262438 0.045245 0.892764 -0.681123
H12   H     H_    0.143416 0.073290 0.887936 0.236401
H13   H     H_    0.316215 0.092749 0.978425 0.250570
H14   H     H_    0.264241 0.943839 0.910815 0.282044
N7    N     N_2   0.589854 0.123354 0.848877 -0.241874
H15   H     H_    0.536121 0.192868 0.898398 0.225584
C23   C     C_3   0.741433 0.159308 0.810354 -0.698337
H16   H     H_    0.739427 0.230032 0.728302 0.223943
H17   H     H_    0.805973 0.079421 0.775412 0.281500
H18   H     H_    0.799969 0.198139 0.898749 0.216591
N8    N     N_2   0.755665 0.577907 0.861086 -0.217673
H19   H     H_    0.792276 0.660788 0.899384 0.289223
C24   C     C_3   0.877470 0.491747 0.863482 -0.796691
H20   H     H_    0.909292 0.469734 0.968509 0.212521
H21   H     H_    0.975256 0.533608 0.809267 0.257051
H22   H     H_    0.845377 0.405199 0.813048 0.252587

loop_
_geom_bond_atom_site_label_1
_geom_bond_atom_site_label_2
_geom_bond_distance
_ccdc_geom_bond_type
O4    Zn2   1.953041 S    
C20   N3    1.449750 S    
C12   C13   1.497216 S    
C14   N6    1.460769 S    
C16   H3    1.081784 S    
C19   C20   1.523898 S    
C19   H5    1.093479 S    
C15   C20   1.484336 S    
C21   H8    1.110644 S    
C22   H13   1.108330 S    
C19   H4    1.105530 S    
C9    H1    1.083835 S    
C24   H21   1.110438 S    
Zn2   O8    1.956415 S    
C24   H22   1.103070 S    
C7    C14   1.511542 S    
N2    C18   1.368661 A    
N8    C24   1.442612 S    
C7    C8    1.388110 A    
C23   H16   1.108188 S    
C16   C17   1.424229 A    
O1    Zn1   2.023067 S    
C22   H12   1.110744 S    
C15   C18   1.410677 A    
Zn1   O7    1.953043 S    
N5    O12   1.302991 A    
C21   H9    1.111240 S    
N7    H15   1.028470 S    
C7    C12   1.372628 A    
C14   N7    1.467673 S    
O3    Zn1   1.956415 S    
N5    O11   1.300309 A    
C10   C11   1.415562 A    
N1    C16   1.358904 A    
C9    C10   1.388322 A    
C13   H2    1.110782 S    
C3    C11   1.428626 S    
C18   C19   1.487760 S    
C10   N4    1.434076 S    
N4    O10   1.299443 A    
O4    C2    1.283343 A    
Zn2   N1    2.026507 S    
O7    C4    1.283640 A    
C4    C6    1.370732 S    
C23   H17   1.105178 S    
O3    C2    1.284850 A    
N7    C23   1.450743 S    
C21   H10   1.109821 S    
N6    H11   1.029601 S    
C13   N5    1.463693 S    
C17   N8    1.415265 S    
C15   N1    1.357540 A    
C20   H6    1.112831 S    
C13   C14   1.528209 S    
N3    C21   1.444717 S    
C1    C8    1.427527 S    
Zn2   O6    2.023066 S    
C24   H20   1.105075 S    
C22   H14   1.107965 S    
N3    H7    1.030908 S    
Zn1   O5    2.010483 S    
O5    C3    1.295670 A    
C11   C12   1.392597 A    
C8    C9    1.400858 A    
C23   H18   1.108800 S    
O2    C1    1.289360 A    
Zn1   N2    2.025632 S    
N6    C22   1.449836 S    
C2    C5    1.370671 S    
N4    O9    1.301518 A    
C17   N2    1.382915 A    
O2    Zn2   2.010485 S    
C5    C6    1.168055 T    
O8    C4    1.284493 A    
N8    H19   1.028386 S    
O1    C1    1.294925 A    
O6    C3    1.287864 A    
