data_str_m4_o1_o15_f0_acs.sym.160
_audit_creation_date              2012-12-11T14:46:00-0500
_audit_creation_method            fapswitch 2.2
_symmetry_space_group_name_H-M    P1
_symmetry_Int_Tables_number       1
_space_group_crystal_system       triclinic
_cell_length_a                    10.876664
_cell_length_b                    10.949644
_cell_length_c                    18.889245
_cell_angle_alpha                 90.075849
_cell_angle_beta                  90.614389
_cell_angle_gamma                 119.837526
_cell_volume                      1951.24532472

loop_
_atom_site_label
_atom_site_type_symbol
_atom_type_description
_atom_site_fract_x
_atom_site_fract_y
_atom_site_fract_z
_atom_type_partial_charge
C1    C     C_R   0.867166 0.637895 0.604483 0.528657
C2    C     C_R   0.471496 0.717732 0.774514 -0.135311
C3    C     C_R   0.444891 0.703435 0.702111 -0.140733
C4    C     C_R   0.308572 0.661667 0.677529 0.044474
C5    C     C_R   0.836891 0.158482 0.823746 -0.019861
C6    C     C_R   0.094838 0.264634 0.844464 -0.087257
C7    C     C_R   0.229014 0.313974 0.816746 -0.102723
C8    C     C_R   0.247341 0.328792 0.744262 -0.122665
C9    C     C_R   0.134002 0.304170 0.699839 -0.090623
C10   C     C_R   0.999286 0.268817 0.727128 -0.001278
C11   C     C_R   0.977221 0.232159 0.799528 0.001381
C12   C     C_R   0.271525 0.632819 0.603599 0.530469
C13   C     C_R   0.756598 0.232364 0.721696 0.013282
C14   C     C_R   0.723823 0.147030 0.780287 0.011798
C15   C     C_R   0.651161 0.261958 0.695662 -0.075675
C16   C     C_R   0.510201 0.182245 0.715320 -0.125434
C17   C     C_R   0.472117 0.071995 0.761530 -0.113597
C18   C     C_R   0.577920 0.054223 0.793260 -0.073974
C19   C     C_R   0.885947 0.269828 0.687163 -0.037226
C20   C     C_R   0.705080 0.575518 0.707986 -0.160465
C21   C     C_R   0.691216 0.573978 0.781424 -0.137305
C22   C     C_R   0.811159 0.655041 0.824604 0.027040
C23   C     C_R   0.890250 0.295803 0.610190 0.553752
C24   C     C_R   0.944344 0.733401 0.793912 -0.139140
C25   C     C_R   0.957226 0.737398 0.721653 -0.135721
C26   C     C_R   0.839118 0.655075 0.678003 0.024783
C27   C     C_R   0.395180 0.596035 0.300157 -0.108761
C28   C     C_R   0.419297 0.600639 0.228304 -0.009125
C29   C     C_R   0.424944 0.713611 0.187811 0.029687
C30   C     C_R   0.401992 0.814795 0.222093 -0.147449
C31   C     C_R   0.360928 0.797333 0.292936 -0.146702
C32   C     C_R   0.352855 0.684325 0.331368 0.005140
C33   C     C_R   0.739148 0.196921 0.277303 -0.016831
C34   C     C_R   0.865318 0.637898 0.397286 0.542407
C35   C     C_R   0.752802 0.201070 0.204958 -0.119043
C36   C     C_R   0.848193 0.168639 0.172866 0.007712
C37   C     C_R   0.949320 0.156644 0.213989 -0.146552
C38   C     C_R   0.951008 0.173196 0.287131 -0.154315
C39   C     C_R   0.845293 0.191245 0.319730 0.024665
C40   C     C_R   0.788901 0.739441 0.299694 -0.022844
C41   C     C_R   0.777359 0.752777 0.226840 -0.096081
C42   C     C_R   0.807361 0.672787 0.179180 0.016788
C43   C     C_R   0.847615 0.577860 0.203229 -0.158317
C44   C     C_R   0.861398 0.565363 0.275518 -0.133847
C45   C     C_R   0.275891 0.636547 0.397921 0.545383
C46   C     C_R   0.832680 0.645727 0.323665 0.046558
C47   C     C_R   0.802754 0.097659 0.894091 0.531898
C48   C     C_R   0.395147 0.700709 0.896492 0.539436
C49   C     C_R   0.796218 0.690872 0.896974 0.545118
C50   C     C_R   0.810065 0.109533 0.101850 0.535261
C51   C     C_R   0.456742 0.726168 0.111458 0.558698
C52   C     C_R   0.798091 0.695294 0.104704 0.532076
C53   C     C_R   0.862113 0.232669 0.394223 0.553677
C54   C     C_R   0.198813 0.631938 0.724990 -0.117089
C55   C     C_R   0.225494 0.647025 0.797421 -0.145982
C56   C     C_R   0.362136 0.690493 0.821932 0.025852
Cr1   Cr    Cr6+3 0.791660 0.390250 0.499930 0.991094
Cr2   Cr    Cr6+3 0.098520 0.708290 0.500540 1.013749
Cr3   Cr    Cr6+3 0.109770 0.401430 0.499480 0.995711
Cr4   Cr    Cr6+3 0.874790 0.925890 0.000070 1.008572
Cr5   Cr    Cr6+3 0.574120 0.948670 0.999300 1.006318
Cr6   Cr    Cr6+3 0.551420 0.625320 0.000920 0.993100
H1    H     H_    0.091256 0.590503 0.705696 0.110526
H2    H     H_    0.430221 0.200968 0.691585 0.101417
H3    H     H_    0.674174 0.341131 0.657160 0.162702
H4    H     H_    0.361767 0.002179 0.773884 0.114058
H5    H     H_    0.612266 0.514019 0.674876 0.102979
H6    H     H_    0.586526 0.515731 0.803937 0.132805
H7    H     H_    0.038632 0.798137 0.825612 0.132706
H8    H     H_    0.062496 0.800890 0.700394 0.142231
H9    H     H_    0.394451 0.511843 0.330602 0.139598
H10   H     H_    0.407513 0.902686 0.193179 0.137094
H11   H     H_    0.140044 0.621233 0.833950 0.109526
H12   H     H_    0.329911 0.867979 0.316503 0.129453
H13   H     H_    0.677041 0.215020 0.173236 0.139513
H14   H     H_    0.023379 0.130420 0.190074 0.133771
H15   H     H_    0.033022 0.169141 0.318338 0.131060
H16   H     H_    0.745609 0.825920 0.206829 0.114154
H17   H     H_    0.871636 0.516939 0.166390 0.117784
H18   H     H_    0.899145 0.496171 0.294161 0.133616
H19   H     H_    0.577771 0.751578 0.793971 0.121032
H20   H     H_    0.529089 0.723379 0.665739 0.116406
H21   H     H_    0.318039 0.336959 0.851351 0.127757
H22   H     H_    0.350544 0.361956 0.722240 0.100224
H23   H     H_    0.085414 0.253993 0.901242 0.133930
H24   H     H_    0.157193 0.311362 0.645032 0.183111
H25   H     H_    0.544251 0.966928 0.827464 0.167060
O1    O     O_R   0.766500 0.250040 0.579790 -0.512746
O2    O     O_R   0.218690 0.701900 0.425960 -0.497629
O3    O     O_R   0.249490 0.516440 0.419420 -0.527655
O4    O     O_R   0.982880 0.281910 0.424890 -0.496632
O5    O     O_3   0.999980 0.499990 0.499980 -0.263665
O6    O     O_R   0.895110 0.806860 0.920430 -0.518320
O7    O     O_R   0.872260 0.046970 0.925000 -0.506086
O8    O     O_R   0.691430 0.085060 0.918550 -0.527029
O9    O     O_R   0.451490 0.822460 0.925250 -0.517070
O10   O     O_R   0.413330 0.603360 0.920440 -0.515285
O11   O     O_R   0.676110 0.626250 0.926750 -0.506637
O12   O     O_R   0.798570 0.516780 0.574780 -0.541327
O13   O     O_R   0.895350 0.809870 0.080950 -0.506908
O14   O     O_R   0.872490 0.049760 0.073800 -0.506924
O15   O     O_R   0.691680 0.088070 0.079070 -0.533189
O16   O     O_R   0.451720 0.825250 0.074050 -0.498327
O17   O     O_R   0.413580 0.606370 0.080960 -0.521970
O18   O     O_R   0.676340 0.629040 0.075550 -0.531982
O19   O     O_3   0.666780 0.833290 0.000090 -0.263481
O20   O     O_R   0.984000 0.732950 0.581090 -0.518583
O21   O     O_R   0.218600 0.700890 0.574760 -0.500915
O22   O     O_R   0.249390 0.515350 0.579940 -0.551017
O23   O     O_R   0.982790 0.280900 0.573700 -0.514302
O24   O     O_R   0.766600 0.251130 0.419260 -0.523169
O25   O     O_R   0.798660 0.517790 0.425980 -0.514277
O26   O     O_R   0.984100 0.734040 0.420570 -0.508575
C57   C     C_3   0.424835 0.475143 0.198041 -0.366352
H26   H     H_    0.522821 0.508533 0.168877 0.174010
H27   H     H_    0.423056 0.402562 0.239600 0.093888
H28   H     H_    0.330935 0.411885 0.163386 0.159297
C58   C     C_3   0.608702 0.196795 0.305281 -0.373513
H29   H     H_    0.529446 0.177276 0.262764 0.094558
H30   H     H_    0.554259 0.110645 0.344070 0.150990
H31   H     H_    0.637544 0.300093 0.329507 0.171563
C59   C     C_3   0.754583 0.823853 0.350560 -0.395660
H32   H     H_    0.712543 0.884688 0.322463 0.140323
H33   H     H_    0.672599 0.752078 0.388082 0.130585
H34   H     H_    0.851430 0.898518 0.380754 0.146889

loop_
_geom_bond_atom_site_label_1
_geom_bond_atom_site_label_2
_ccdc_geom_bond_type
C7    H21   S    
C55   C56   A    
Cr1   O5    S    
C34   O25   A    
C41   C42   A    
C14   C18   A    
C20   H5    S    
C35   C36   A    
C1    O12   A    
C15   H3    S    
C57   H26   S    
Cr5   O9    S    
C36   C50   S    
C7    C8    A    
Cr6   O18   S    
C39   C53   S    
C34   O26   A    
C40   C46   A    
C48   O10   A    
C5    C47   S    
C35   H13   S    
C17   H4    S    
C29   C30   A    
C6    H23   S    
C36   C37   A    
Cr5   O16   S    
C5    C11   A    
C30   C31   A    
Cr1   O25   S    
C54   H1    S    
C51   O16   A    
C15   C16   A    
Cr1   O12   S    
Cr3   O23   S    
Cr2   O20   S    
C32   C45   S    
C58   H29   S    
C33   C35   A    
C49   O11   A    
Cr6   O11   S    
C8    C9    A    
C53   O4    A    
Cr2   O26   S    
C34   C46   S    
C4    C12   S    
C45   O2    A    
C9    C10   A    
Cr4   O6    S    
C53   O24   A    
C33   C58   S    
C21   C22   A    
C12   O22   A    
C44   C46   A    
C24   H7    S    
Cr6   O17   S    
C38   C39   A    
C13   C19   A    
C44   H18   S    
C24   C25   A    
C6    C11   A    
C12   O21   A    
C16   C17   A    
C31   H12   S    
Cr3   O4    S    
C51   O17   A    
C52   O13   A    
C27   H9    S    
Cr3   O3    S    
C19   C23   S    
C43   C44   A    
C37   C38   A    
C45   O3    A    
C9    H24   S    
Cr6   O10   S    
C57   H27   S    
C31   C32   A    
C10   C19   A    
C3    H20   S    
C17   C18   A    
C33   C39   A    
Cr5   O19   S    
C5    C14   A    
C43   H17   S    
C28   C57   S    
C1    O20   A    
C22   C49   S    
C40   C41   A    
C37   H14   S    
C52   O18   A    
C50   O15   A    
C23   O1    A    
C13   C15   A    
C21   H6    S    
C1    C26   S    
C22   C24   A    
C42   C43   A    
C59   H33   S    
Cr4   O14   S    
C41   H16   S    
Cr4   O19   S    
C29   C51   S    
C48   C56   S    
C23   O23   A    
C54   C55   A    
C28   C29   A    
C48   O9    A    
C4    C54   A    
C27   C32   A    
C8    H22   S    
Cr4   O13   S    
C30   H10   S    
Cr5   O8    S    
C6    C7    A    
Cr6   O19   S    
C38   H15   S    
C40   C59   S    
C18   H25   S    
Cr1   O1    S    
C59   H34   S    
Cr5   O15   S    
C25   C26   A    
C2    C56   A    
Cr1   O24   S    
C20   C26   A    
Cr3   O22   S    
C47   O7    A    
C2    C3    A    
Cr2   O21   S    
Cr3   O5    S    
Cr2   O2    S    
C58   H30   S    
C57   H28   S    
C10   C11   A    
C55   H11   S    
C20   C21   A    
C50   O14   A    
C27   C28   A    
C47   O8    A    
C2    H19   S    
C25   H8    S    
C16   H2    S    
C49   O6    A    
C59   H32   S    
C13   C14   A    
Cr2   O5    S    
C58   H31   S    
C3    C4    A    
C42   C52   S    
Cr4   O7    S    
