data_str_m3_o10_o16_f0_pcu.sym.17
_audit_creation_date              2012-12-10T16:51:30-0500
_audit_creation_method            fapswitch 2.2
_symmetry_space_group_name_H-M    P1
_symmetry_Int_Tables_number       1
_space_group_crystal_system       triclinic
_cell_length_a                    7.827895
_cell_length_b                    8.570468
_cell_length_c                    12.11411
_cell_angle_alpha                 92.302642
_cell_angle_beta                  101.265024
_cell_angle_gamma                 94.188748
_cell_volume                      793.700771526

loop_
_atom_site_label
_atom_site_type_symbol
_atom_type_description
_atom_site_fract_x
_atom_site_fract_y
_atom_site_fract_z
_atom_type_partial_charge
C1    C     C_R   0.044749 0.794758 0.497500 0.971037
C2    C     C_R   0.158995 0.502333 0.831986 -0.085468
C3    C     C_2   0.068189 0.958546 0.496464 -0.398449
C4    C     C_R   0.106052 0.503515 0.710277 0.863710
C5    C     C_2   0.932582 0.041626 0.505162 -0.367283
C6    C     C_R   0.955519 0.205294 0.503069 0.961000
C7    C     C_R   0.892182 0.487873 0.289686 0.864262
C8    C     C_R   0.811111 0.284951 0.003958 -0.128401
C9    C     C_R   0.829163 0.454612 0.170232 -0.063013
C10   C     C_R   0.073228 0.592520 0.899999 -0.175668
C11   C     C_R   0.143793 0.620295 0.013868 -0.131342
C12   C     C_R   0.395029 0.478710 0.989986 0.080777
C13   C     C_R   0.304883 0.566740 0.058704 -0.177719
C14   C     C_R   0.309720 0.430203 0.879837 0.033238
C15   C     C_R   0.567521 0.438583 0.026684 0.001066
C16   C     C_R   0.641284 0.328318 0.962600 0.110167
C17   C     C_R   0.543488 0.262126 0.859954 0.411999
C18   C     C_R   0.378418 0.313733 0.819309 -0.318732
C19   C     C_R   0.670220 0.509197 0.124902 -0.234561
C20   C     C_R   0.902969 0.344908 0.109161 -0.225452
H1    H     H_    0.027241 0.301199 0.144482 0.161819
H2    H     H_    0.303023 0.260671 0.740540 0.167640
H3    H     H_    0.195964 0.010150 0.488314 0.177038
H4    H     H_    0.527598 0.117925 0.729060 0.334060
H5    H     H_    0.804885 0.990055 0.513490 0.183506
H6    H     H_    0.469662 0.375168 0.416361 0.188389
H7    H     H_    0.530336 0.624794 0.583670 0.195452
H8    H     H_    0.870280 0.200408 0.957595 0.189459
H9    H     H_    0.625940 0.603336 0.171168 0.147854
H10   H     H_    0.954801 0.645663 0.864462 0.162333
H11   H     H_    0.353719 0.592515 0.147680 0.137644
H12   H     H_    0.076674 0.688309 0.066745 0.146959
N1    N     N_2   0.434800 0.456690 0.470850 -0.175131
N2    N     N_2   0.565200 0.543310 0.529150 -0.167639
O1    O     O_R   0.893060 0.738880 0.507150 -0.610072
O2    O     O_R   0.172250 0.711130 0.488470 -0.624789
O3    O     O_R   0.944700 0.520730 0.667600 -0.606167
O4    O     O_R   0.223890 0.492980 0.648920 -0.616941
O5    O     O_R   0.827750 0.288870 0.511530 -0.615475
O6    O     O_R   0.106940 0.261120 0.492850 -0.621551
O7    O     O_R   0.776110 0.507020 0.351080 -0.621186
O8    O     O_R   0.055300 0.479270 0.332400 -0.619307
O9    O     O_3   0.612340 0.150323 0.799833 -0.785311
Zn1   Zn    Zn3+2 0.813580 0.518530 0.512470 0.949606
Zn2   Zn    Zn3+2 0.186420 0.481470 0.487530 0.930642

loop_
_geom_bond_atom_site_label_1
_geom_bond_atom_site_label_2
_ccdc_geom_bond_type
C2    C4    S    
C17   O9    S    
O5    Zn1   S    
N1    Zn2   S    
C10   H10   S    
C9    C20   A    
C3    H3    S    
C12   C15   A    
O3    Zn1   S    
N1    N2    D    
O2    Zn2   S    
C8    C16   A    
C20   H1    S    
C15   C19   A    
O1    Zn1   S    
C11   C13   A    
C8    C20   A    
C5    H5    S    
C5    C6    S    
C12   C14   A    
C11   H12   S    
C17   C18   A    
C7    O7    A    
H7    N2    S    
O6    Zn2   S    
C2    C14   A    
O7    Zn1   S    
C6    O6    A    
C10   C11   A    
C15   C16   A    
C19   H9    S    
C3    C5    D    
N2    Zn1   S    
C4    O3    A    
C1    O1    A    
C8    H8    S    
C7    O8    A    
C7    C9    S    
H4    O9    S    
C14   C18   A    
C6    O5    A    
O4    Zn2   S    
H6    N1    S    
C12   C13   A    
C18   H2    S    
C13   H11   S    
C9    C19   A    
C1    O2    A    
C4    O4    A    
C16   C17   A    
C1    C3    S    
O8    Zn2   S    
C2    C10   A    
