data_str_m2_o4_o14_f0_pcu.sym.129
_audit_creation_date              2012-12-10T18:59:14-0500
_audit_creation_method            fapswitch 2.2
_symmetry_space_group_name_H-M    P1
_symmetry_Int_Tables_number       1
_space_group_crystal_system       triclinic
_cell_length_a                    10.875052
_cell_length_b                    10.840918
_cell_length_c                    9.527569
_cell_angle_alpha                 90.765304
_cell_angle_beta                  90.678563
_cell_angle_gamma                 90.749702
_cell_volume                      1122.98048217

loop_
_atom_site_label
_atom_site_type_symbol
_atom_type_description
_atom_site_fract_x
_atom_site_fract_y
_atom_site_fract_z
_atom_type_partial_charge
C1    C     C_R   0.496089 0.262527 0.498914 0.790086
C2    C     C_R   0.063153 0.536302 0.624078 0.095503
C3    C     C_R   0.128147 0.509637 0.500184 -0.148263
C4    C     C_R   0.065818 0.462121 0.382036 -0.240063
C5    C     C_R   0.938871 0.443126 0.381611 0.085907
C6    C     C_R   0.872673 0.470672 0.505914 -0.162807
C7    C     C_R   0.436929 0.065378 0.608291 0.090215
C8    C     C_R   0.483263 0.129812 0.494482 -0.081986
C9    C     C_R   0.514280 0.063498 0.372895 -0.228640
C10   C     C_R   0.518949 0.935320 0.375799 -0.214715
C11   C     C_R   0.489940 0.871574 0.499003 -0.111829
C12   C     C_R   0.262446 0.507363 0.499771 0.805362
C13   C     C_R   0.440316 0.938293 0.611069 0.068118
C14   C     C_3   0.468755 0.939997 0.765397 -0.117445
C15   C     C_3   0.461254 0.080217 0.761648 -0.466709
C16   C     C_R   0.601773 0.538425 0.075726 0.251706
C17   C     C_R   0.404929 0.449335 0.072421 -0.098363
C18   C     C_R   0.405014 0.449140 0.923496 -0.094963
C19   C     C_R   0.601287 0.539504 0.928176 0.248187
C20   C     C_3   0.656814 0.665656 0.927147 -0.516815
C21   C     C_3   0.661120 0.662578 0.085936 -0.512319
C22   C     C_R   0.498893 0.738000 0.500648 0.800775
C23   C     C_R   0.737598 0.487274 0.501155 0.796567
C24   C     C_R   0.118228 0.596979 0.741975 -0.156056
C25   C     C_R   0.062531 0.593450 0.872563 -0.157834
C26   C     C_R   0.951931 0.530011 0.887011 -0.182093
C27   C     C_R   0.890717 0.481788 0.768694 -0.156019
C28   C     C_R   0.939872 0.496613 0.632748 0.077924
Cu1   Cu    Cu3+1 0.499990 0.499980 0.640670 0.923189
Cu2   Cu    Cu3+1 0.500010 0.500020 0.359330 0.931312
H1    H     H_    0.117391 0.436830 0.289574 0.153310
H2    H     H_    0.563635 0.909201 0.788334 0.156365
H3    H     H_    0.380935 0.120020 0.816422 0.190135
H4    H     H_    0.550755 0.127072 0.785779 0.189172
H5    H     H_    0.327112 0.410105 0.126429 0.139342
H6    H     H_    0.748610 0.669775 0.878412 0.213596
H7    H     H_    0.591024 0.733066 0.886541 0.213192
H8    H     H_    0.756108 0.659141 0.129835 0.188040
H9    H     H_    0.601301 0.731581 0.135957 0.214886
H10   H     H_    0.204268 0.647218 0.734661 0.144208
H11   H     H_    0.107195 0.636122 0.963278 0.137426
H12   H     H_    0.911395 0.521476 0.989337 0.126929
H13   H     H_    0.808076 0.428561 0.786858 0.158373
H14   H     H_    0.542254 0.110348 0.278715 0.168707
H15   H     H_    0.551217 0.887219 0.283876 0.153300
N1    N     N_R   0.500790 0.500930 0.147930 -0.180747
N2    N     N_R   0.500790 0.500890 0.852020 -0.189205
O1    O     O_R   0.500000 0.319640 0.618810 -0.582875
O2    O     O_R   0.500010 0.319680 0.381230 -0.586098
O3    O     O_R   0.319640 0.499980 0.618820 -0.594549
O4    O     O_R   0.319650 0.500020 0.381230 -0.587754
O5    O     O_R   0.499990 0.680320 0.618770 -0.590103
O6    O     O_R   0.500000 0.680360 0.381190 -0.578833
O7    O     O_R   0.680350 0.499980 0.618770 -0.588916
O8    O     O_R   0.680360 0.500020 0.381180 -0.576269
H16   H     H_    0.327331 0.409442 0.866375 0.154254
C29   C     C_3   0.881429 0.384962 0.249716 -0.391980
C30   C     C_3   0.826433 0.256644 0.277321 -0.308557
C31   C     C_3   0.771165 0.199724 0.142921 -0.869222
H17   H     H_    0.691912 0.254902 0.106207 0.253704
H18   H     H_    0.841187 0.195946 0.059070 0.249935
H19   H     H_    0.738870 0.104156 0.163310 0.235847
H20   H     H_    0.899886 0.195460 0.317250 0.211831
H21   H     H_    0.753628 0.261962 0.357713 0.217554
H22   H     H_    0.812740 0.446275 0.202211 0.212062
H23   H     H_    0.952187 0.373294 0.167449 0.176910
C32   C     C_3   0.367613 0.876625 0.851231 -0.368678
C33   C     C_3   0.384510 0.903101 0.008820 -0.352206
C34   C     C_3   0.300650 0.820365 0.095190 -0.834069
H24   H     H_    0.202937 0.834810 0.065276 0.242336
H25   H     H_    0.323958 0.721876 0.078110 0.260397
H26   H     H_    0.312595 0.843102 0.208468 0.255499
H27   H     H_    0.481438 0.887514 0.040381 0.210576
H28   H     H_    0.363024 0.001080 0.032388 0.221641
H29   H     H_    0.274980 0.907568 0.816780 0.197438
H30   H     H_    0.372460 0.775617 0.831493 0.215166

loop_
_geom_bond_atom_site_label_1
_geom_bond_atom_site_label_2
_ccdc_geom_bond_type
Cu2   O4    S    
C16   C21   S    
C1    C8    S    
C19   C20   S    
C29   H23   S    
C18   N2    A    
C7    C8    A    
C26   C27   A    
Cu1   N2    S    
C5    C6    A    
C19   N2    A    
Cu1   O7    S    
C33   H28   S    
C34   H25   S    
C3    C12   S    
C6    C28   A    
C21   H8    S    
C8    C9    A    
C31   H19   S    
C14   C32   S    
C9    C10   A    
C15   H4    S    
C18   H16   S    
C7    C15   S    
C31   H17   S    
C13   C14   S    
C25   C26   A    
C22   O6    A    
Cu1   O3    S    
C30   H21   S    
Cu2   O6    S    
C31   H18   S    
Cu1   O1    S    
C32   C33   S    
C17   N1    A    
C25   H11   S    
C33   C34   S    
C33   H27   S    
C34   H26   S    
Cu1   Cu2   S    
C21   H9    S    
C29   H22   S    
C10   H15   S    
C17   C18   A    
C24   C25   A    
Cu2   O2    S    
C2    C24   A    
C32   H29   S    
C16   N1    A    
C3    C4    A    
C12   O4    A    
C26   H12   S    
C23   O7    A    
C22   O5    A    
C30   H20   S    
C9    H14   S    
Cu2   N1    S    
C14   H2    S    
C4    C5    A    
C12   O3    A    
C1    O1    A    
C23   O8    A    
Cu2   O8    S    
C11   C22   S    
C5    C29   S    
C2    C3    A    
C30   C31   S    
C20   H7    S    
C11   C13   A    
C29   C30   S    
C16   C19   A    
C6    C23   S    
C24   H10   S    
C34   H24   S    
C4    H1    S    
C10   C11   A    
C20   H6    S    
C27   H13   S    
C7    C13   A    
C20   C21   S    
C27   C28   A    
C14   C15   S    
C2    C28   A    
C32   H30   S    
C17   H5    S    
C1    O2    A    
C15   H3    S    
Cu1   O5    S    
