data_str_m3_o1_o16_f0_pcu.sym.216
_audit_creation_date              2012-12-10T18:46:17-0500
_audit_creation_method            fapswitch 2.2
_symmetry_space_group_name_H-M    P1
_symmetry_Int_Tables_number       1
_space_group_crystal_system       triclinic
_cell_length_a                    9.999997
_cell_length_b                    10.592298
_cell_length_c                    13.134553
_cell_angle_alpha                 89.729533
_cell_angle_beta                  71.968336
_cell_angle_gamma                 89.189537
_cell_volume                      1322.7877002

loop_
_atom_site_label
_atom_site_type_symbol
_atom_type_description
_atom_site_fract_x
_atom_site_fract_y
_atom_site_fract_z
_atom_type_partial_charge
C1    C     C_R   0.499878 0.738910 0.498579 0.915677
C2    C     C_R   0.449419 0.453166 0.974787 0.006253
C3    C     C_R   0.492086 0.433256 0.864459 -0.054883
C4    C     C_R   0.552078 0.492007 0.022093 0.008892
C5    C     C_R   0.697025 0.488599 0.960454 0.106702
C6    C     C_R   0.737502 0.442169 0.854870 0.121158
C7    C     C_R   0.633949 0.401595 0.812418 0.038560
C8    C     C_R   0.516596 0.532645 0.128618 -0.052188
C9    C     C_R   0.762943 0.536188 0.118749 -0.030523
C10   C     C_R   0.389216 0.429694 0.812100 -0.178849
C11   C     C_R   0.470348 0.936213 0.592817 0.151159
C12   C     C_R   0.425475 0.476455 0.700217 0.881677
C13   C     C_R   0.475016 0.065483 0.589982 -0.224048
C14   C     C_R   0.507001 0.128242 0.492668 -0.090513
C15   C     C_R   0.543871 0.065144 0.393435 0.196841
C16   C     C_R   0.538640 0.932987 0.394974 0.142648
C17   C     C_R   0.500263 0.871698 0.495358 -0.087235
C18   C     C_R   0.953906 0.411278 0.442311 0.205487
C19   C     C_R   0.098176 0.413796 0.440957 0.008496
C20   C     C_R   0.045310 0.588675 0.556859 0.216972
C21   C     C_R   0.902991 0.587778 0.556138 -0.096542
C22   C     C_R   0.501829 0.260852 0.497963 0.886215
C23   C     C_R   0.576520 0.511472 0.297238 0.845697
C24   C     C_R   0.799171 0.521943 0.008640 -0.241267
C25   C     C_R   0.620345 0.529433 0.180702 -0.160406
C26   C     C_R   0.261671 0.371320 0.866825 0.177954
C27   C     C_R   0.221547 0.365272 0.980264 0.253373
C28   C     C_R   0.311446 0.415967 0.033331 -0.193116
H1    H     H_    0.455167 0.117767 0.663707 0.144521
H2    H     H_    0.828426 0.658032 0.600835 0.155855
H3    H     H_    0.909346 0.527866 0.962890 0.165735
H4    H     H_    0.279548 0.409676 0.119613 0.163513
N1    N     N_R   0.142790 0.500030 0.500030 -0.117410
N2    N     N_R   0.857180 0.499940 0.500010 -0.099579
O1    O     O_R   0.385370 0.683250 0.500010 -0.616303
O2    O     O_R   0.614700 0.683220 0.500010 -0.611677
O3    O     O_R   0.328400 0.499990 0.653620 -0.623817
O4    O     O_R   0.557730 0.499960 0.653620 -0.611962
O5    O     O_R   0.385300 0.316780 0.499990 -0.609710
O6    O     O_R   0.614630 0.316750 0.499990 -0.614696
O7    O     O_R   0.442270 0.500040 0.346380 -0.599785
O8    O     O_R   0.671600 0.500010 0.346380 -0.619325
Zn1   Zn    Zn3+2 0.346870 0.500020 0.500000 0.947366
Zn2   Zn    Zn3+2 0.653130 0.499980 0.500000 0.950770
C29   C     C_1   0.874369 0.560404 0.164435 0.195970
N3    N     N_1   0.963744 0.580017 0.200751 -0.185294
C30   C     C_3   0.592325 0.136632 0.288263 -0.873834
H5    H     H_    0.520322 0.118833 0.240546 0.255705
H6    H     H_    0.595686 0.240142 0.298275 0.228161
H7    H     H_    0.700673 0.105472 0.242275 0.239416
C31   C     C_3   0.573975 0.855231 0.292852 -0.889180
H8    H     H_    0.666068 0.792796 0.287545 0.237045
H9    H     H_    0.482648 0.796147 0.294492 0.241997
H10   H     H_    0.599605 0.911611 0.218211 0.251691
C32   C     C_3   0.906718 0.306689 0.383900 -0.804369
H11   H     H_    0.994516 0.257512 0.324061 0.191895
H12   H     H_    0.851687 0.233981 0.442138 0.259363
H13   H     H_    0.839405 0.343122 0.338015 0.272837
C33   C     C_1   0.199923 0.326215 0.375331 0.256715
N4    N     N_1   0.280296 0.255551 0.321894 -0.220878
C34   C     C_3   0.086333 0.692044 0.618684 -0.831455
H14   H     H_    0.145786 0.653988 0.670188 0.262775
H15   H     H_    0.147703 0.763805 0.562742 0.260864
H16   H     H_    0.992603 0.741476 0.672409 0.199405
C35   C     C_3   0.889663 0.421067 0.793422 -0.944490
H17   H     H_    0.908443 0.386926 0.710419 0.252263
H18   H     H_    0.949101 0.509838 0.787514 0.249514
H19   H     H_    0.927157 0.348221 0.838396 0.251643
C36   C     C_1   0.383448 0.597777 0.178091 0.188616
N5    N     N_1   0.277698 0.650084 0.217539 -0.186886
C37   C     C_3   0.191639 0.293251 0.802832 -0.911892
H20   H     H_    0.105331 0.234778 0.853018 0.245359
H21   H     H_    0.153893 0.353252 0.748354 0.274489
H22   H     H_    0.269209 0.226124 0.752592 0.227238
C38   C     C_3   0.089361 0.300435 0.045380 -0.920760
H23   H     H_    0.067500 0.316616 0.132455 0.241580
H24   H     H_    0.997856 0.336456 0.023017 0.245730
H25   H     H_    0.100601 0.197117 0.030933 0.246922
C39   C     C_1   0.668549 0.301418 0.733005 0.206013
N6    N     N_1   0.698569 0.220258 0.671125 -0.213000
C40   C     C_3   0.433829 0.868469 0.699395 -0.880773
H26   H     H_    0.522493 0.805294 0.701779 0.244488
H27   H     H_    0.412884 0.935497 0.767570 0.241615
H28   H     H_    0.338088 0.811213 0.710695 0.235813

loop_
_geom_bond_atom_site_label_1
_geom_bond_atom_site_label_2
_ccdc_geom_bond_type
C32   H11   S    
C9    C29   S    
C26   C37   S    
C16   C31   S    
C15   C30   S    
C4    C8    A    
C40   H26   S    
C9    C25   A    
C30   H6    S    
C29   N3    T    
C11   C40   S    
C8    C36   S    
C23   O8    A    
C13   H1    S    
C3    C7    A    
C5    C6    A    
C15   C16   A    
C12   O3    A    
C18   C19   A    
C20   C34   S    
C34   H15   S    
C6    C35   S    
C16   C17   A    
C35   H18   S    
O1    Zn1   S    
C10   C26   A    
C33   N4    T    
C13   C14   A    
C8    C25   A    
O7    Zn1   S    
C34   H14   S    
O8    Zn2   S    
C27   C38   S    
C40   H27   S    
C30   H7    S    
C31   H8    S    
N1    Zn1   S    
C28   H4    S    
N2    Zn2   S    
C19   N1    A    
C37   H21   S    
O5    Zn1   S    
C21   N2    A    
C19   C33   S    
C31   H9    S    
O3    Zn1   S    
C34   H16   S    
C2    C4    A    
C38   H23   S    
O4    Zn2   S    
C38   H24   S    
C30   H5    S    
C35   H19   S    
C22   O6    A    
C26   C27   A    
C18   N2    A    
C10   C12   S    
C18   C32   S    
C20   N1    A    
C32   H12   S    
O2    Zn2   S    
C40   H28   S    
C1    O1    A    
C7    C39   S    
C11   C17   A    
C4    C5    A    
C37   H22   S    
C9    C24   A    
C6    C7    A    
C21   H2    S    
C1    C17   S    
C23   O7    A    
C31   H10   S    
C14   C22   S    
C2    C3    A    
C24   H3    S    
C37   H20   S    
C3    C10   A    
C11   C13   A    
C5    C24   A    
C22   O5    A    
C23   C25   S    
C12   O4    A    
C36   N5    T    
C38   H25   S    
C39   N6    T    
O6    Zn2   S    
C20   C21   A    
C35   H17   S    
C32   H13   S    
C27   C28   A    
C14   C15   A    
C2    C28   A    
C1    O2    A    
