data_str_m9_o4_o18_f0_sra.sym.33
_audit_creation_date              2012-12-11T17:02:14-0500
_audit_creation_method            fapswitch 2.2
_symmetry_space_group_name_H-M    P1
_symmetry_Int_Tables_number       1
_space_group_crystal_system       triclinic
_cell_length_a                    21.640658
_cell_length_b                    7.072689
_cell_length_c                    14.820115
_cell_angle_alpha                 90.001989
_cell_angle_beta                  106.024323
_cell_angle_gamma                 89.999069
_cell_volume                      2180.19493119

loop_
_atom_site_label
_atom_site_type_symbol
_atom_type_description
_atom_site_fract_x
_atom_site_fract_y
_atom_site_fract_z
_atom_type_partial_charge
O1    O     O_R   0.585850 0.505770 0.002130 -0.536890
O2    O     O_R   0.414150 0.005770 0.997870 -0.536891
O3    O     O_R   0.467530 0.173560 0.861970 -0.537760
O4    O     O_R   0.532470 0.673560 0.138030 -0.537758
C1    C     C_R   0.455366 0.344223 0.825256 0.683708
C2    C     C_R   0.544632 0.844227 0.174743 0.683713
O5    O     O_R   0.588690 0.175900 0.993250 -0.544902
O6    O     O_R   0.411310 0.675900 0.006750 -0.544905
O7    O     O_R   0.536170 0.007950 0.130090 -0.537573
O8    O     O_R   0.463830 0.507950 0.869910 -0.537572
C3    C     C_R   0.615062 0.344631 0.997731 0.689549
C4    C     C_R   0.384938 0.844635 0.002266 0.689553
O9    O     O_3   0.482630 0.339970 0.044740 -0.372525
O10   O     O_3   0.517370 0.839970 0.955260 -0.372527
V1    V     V_3+5 0.503220 0.064200 0.991700 1.408317
V2    V     V_3+5 0.496780 0.564200 0.008300 1.408313
C5    C     C_R   0.292361 0.009892 0.041472 0.103822
C6    C     C_R   0.707633 0.509860 0.958501 0.103810
C7    C     C_R   0.317018 0.852753 0.005361 -0.107755
C8    C     C_R   0.682982 0.352741 0.994630 -0.107757
C9    C     C_R   0.274870 0.699772 0.973888 -0.180777
C10   C     C_R   0.725133 0.199770 0.026105 -0.180772
H1    H     H_    0.291582 0.575273 0.945546 0.134296
H2    H     H_    0.708425 0.075276 0.054450 0.134288
C11   C     C_R   0.209496 0.711529 0.972163 -0.181066
C12   C     C_R   0.790507 0.211526 0.027830 -0.181046
H3    H     H_    0.178018 0.594530 0.943565 0.135675
H4    H     H_    0.821987 0.094533 0.056432 0.135668
C13   C     C_R   0.184160 0.877210 0.001256 -0.104142
C14   C     C_R   0.815840 0.377204 0.998732 -0.104129
C15   C     C_R   0.227717 0.021792 0.039536 0.105707
C16   C     C_R   0.772276 0.521756 0.960431 0.105680
C17   C     C_3   0.224877 0.227244 0.016676 -0.421667
C18   C     C_3   0.775110 0.727227 0.983260 -0.421659
C19   C     C_3   0.295418 0.214316 0.019018 -0.401094
C20   C     C_3   0.704573 0.714300 0.980935 -0.401061
H5    H     H_    0.216350 0.315151 0.074270 0.169852
H6    H     H_    0.783627 0.815083 0.925645 0.169842
H7    H     H_    0.192725 0.257387 0.945534 0.175004
H8    H     H_    0.807267 0.757429 0.054389 0.175013
H9    H     H_    0.327587 0.294605 0.078028 0.174088
H10   H     H_    0.672395 0.794555 0.921920 0.174080
H11   H     H_    0.304124 0.237394 0.949305 0.168051
H12   H     H_    0.695874 0.737414 0.050651 0.168051
C21   C     C_R   0.928446 0.886233 0.722877 -0.035750
C22   C     C_R   0.071551 0.386249 0.277120 -0.035749
C23   C     C_R   0.572949 0.849672 0.276359 -0.030518
C24   C     C_R   0.427047 0.349661 0.723640 -0.030498
C25   C     C_R   0.941641 0.922562 0.566459 0.026922
C26   C     C_R   0.058347 0.422494 0.433539 0.026919
C27   C     C_R   0.967697 0.914675 0.663932 -0.200819
C28   C     C_R   0.032297 0.414609 0.336064 -0.200816
C29   C     C_R   0.862478 0.862592 0.685473 -0.211092
C30   C     C_R   0.137517 0.362685 0.314526 -0.211091
C31   C     C_R   0.833280 0.874230 0.587675 0.063405
C32   C     C_R   0.166709 0.374242 0.412326 0.063423
C33   C     C_R   0.873530 0.912126 0.527957 0.106216
C34   C     C_R   0.126458 0.412048 0.472048 0.106209
C35   C     C_R   0.765146 0.855323 0.548156 0.069837
C36   C     C_R   0.234847 0.355333 0.451842 0.069828
C37   C     C_R   0.737438 0.884970 0.449878 0.063552
C38   C     C_R   0.262549 0.384917 0.550130 0.063561
C39   C     C_R   0.778453 0.936416 0.394818 -0.214478
C40   C     C_R   0.221533 0.436241 0.605201 -0.214471
C41   C     C_R   0.844485 0.948597 0.432710 -0.164143
C42   C     C_R   0.155501 0.448408 0.567309 -0.164221
C43   C     C_R   0.723801 0.806535 0.603685 -0.187515
C44   C     C_R   0.276199 0.306579 0.396302 -0.187510
C45   C     C_R   0.657924 0.790423 0.565187 -0.206509
C46   C     C_R   0.342079 0.290455 0.434795 -0.206541
C47   C     C_R   0.630363 0.816825 0.469510 0.138902
C48   C     C_R   0.369636 0.316824 0.530480 0.138945
C49   C     C_R   0.669517 0.863304 0.410025 0.085414
C50   C     C_R   0.330471 0.363287 0.589978 0.085411
C51   C     C_R   0.563810 0.791567 0.432499 -0.165722
C52   C     C_R   0.436195 0.291564 0.567478 -0.165769
C53   C     C_R   0.535421 0.806045 0.336373 -0.174587
C54   C     C_R   0.464581 0.306021 0.663612 -0.174566
C55   C     C_R   0.639075 0.880020 0.312540 -0.210786
C56   C     C_R   0.360911 0.380016 0.687470 -0.210840
H13   H     H_    0.871867 0.994892 0.386015 0.176546
H14   H     H_    0.128117 0.494597 0.614020 0.176594
H15   H     H_    0.665426 0.907814 0.262011 0.091934
H16   H     H_    0.334565 0.407827 0.737999 0.091943
H17   H     H_    0.484340 0.780186 0.308528 0.106291
H18   H     H_    0.515668 0.280159 0.691450 0.106287
H19   H     H_    0.628328 0.752683 0.610756 0.123259
H20   H     H_    0.371670 0.252750 0.389219 0.123273
H21   H     H_    0.019145 0.929288 0.694472 0.102821
H22   H     H_    0.980849 0.429185 0.305521 0.102811
H23   H     H_    0.835231 0.844588 0.735650 0.094642
H24   H     H_    0.164770 0.344786 0.264348 0.094636
H25   H     H_    0.761059 0.970977 0.321427 0.123628
H26   H     H_    0.238927 0.470685 0.678605 0.123622
H27   H     H_    0.740617 0.776094 0.677542 0.122918
H28   H     H_    0.259385 0.276170 0.322441 0.122922
H29   H     H_    0.533886 0.755782 0.477849 0.118487
H30   H     H_    0.466115 0.255805 0.522125 0.118501
O11   O     O_R   0.036080 0.231270 0.130120 -0.537562
O12   O     O_R   0.963920 0.731270 0.869880 -0.537565
O13   O     O_R   0.911300 0.558970 0.006750 -0.541495
O14   O     O_R   0.088700 0.058970 0.993250 -0.541492
C57   C     C_R   0.884883 0.389931 0.001974 0.687660
C58   C     C_R   0.115117 0.889930 0.998022 0.687655
O15   O     O_R   0.032450 0.561140 0.138040 -0.536427
O16   O     O_R   0.967550 0.061140 0.861960 -0.536423
O17   O     O_R   0.085870 0.728910 0.002130 -0.541446
O18   O     O_R   0.914130 0.228910 0.997870 -0.541447
C59   C     C_R   0.044369 0.392623 0.175207 0.701447
C60   C     C_R   0.955630 0.892617 0.824792 0.701435
O19   O     O_3   0.017320 0.394650 0.955270 -0.372666
O20   O     O_3   0.982680 0.894650 0.044730 -0.372663
V3    V     V_3+5 0.996780 0.670490 0.008300 1.431464
V4    V     V_3+5 0.003220 0.170490 0.991700 1.431461
C61   C     C_2   0.988491 0.939621 0.509831 0.330923
H31   H     H_    0.035958 0.997331 0.541977 0.100621
O21   O     O_2   0.976894 0.879702 0.429690 -0.557251
C62   C     C_2   0.011489 0.439605 0.490153 0.330878
H32   H     H_    0.964029 0.497384 0.457999 0.100631
O22   O     O_2   0.023074 0.379666 0.570289 -0.557258

loop_
_geom_bond_atom_site_label_1
_geom_bond_atom_site_label_2
_ccdc_geom_bond_type
C14   C16   A    
C39   C41   A    
O12   C60   A    
C31   C35   A    
O13   V3    S    
C28   H22   S    
O1    C3    A    
C23   C55   A    
C56   H16   S    
C46   H20   S    
O11   V4    S    
O20   V4    S    
O5    C3    A    
C44   H28   S    
O16   V4    S    
C18   H8    S    
O15   V3    S    
C7    C9    A    
C52   C54   A    
C17   C19   S    
C21   C27   A    
O18   V4    S    
C61   H31   S    
O11   C59   A    
C22   C28   A    
C51   H29   S    
C25   C33   A    
C36   C38   A    
C24   C54   A    
C45   C47   A    
C62   H32   S    
O17   V3    S    
C38   C40   A    
C35   C43   A    
C20   H10   S    
C34   C42   A    
C61   O21   D    
C14   C57   S    
C29   H23   S    
C26   C28   A    
C15   C17   S    
C57   O18   A    
C19   H11   S    
C18   C20   S    
C45   H19   S    
C48   C52   A    
C54   H18   S    
O5    V1    S    
O2    C4    A    
O6    V2    S    
C50   C56   A    
C43   H27   S    
C2    O7    A    
O20   V3    S    
C22   C59   S    
C29   C31   A    
C11   C13   A    
C1    C24   S    
C30   C32   A    
C3    C8    S    
C35   C37   A    
C2    C23   S    
C26   C34   A    
C48   C50   A    
C47   C49   A    
C21   C60   S    
C25   C27   A    
C21   C29   A    
C17   H5    S    
C32   C36   A    
C13   C58   S    
C43   C45   A    
C40   C42   A    
O4    V2    S    
C30   H24   S    
O14   V4    S    
C42   H14   S    
C41   H13   S    
O6    C4    A    
C22   C30   A    
C37   C39   A    
C49   C55   A    
O19   V3    S    
O1    V2    S    
C17   H7    S    
O14   C58   A    
O2    V1    S    
C51   C53   A    
O4    C2    A    
C25   C61   S    
C8    C10   A    
C12   C14   A    
C26   C62   S    
C31   C33   A    
C5    C15   A    
C10   H2    S    
C20   H12   S    
C6    C16   A    
C23   C53   A    
O3    V1    S    
O16   C60   A    
C9    C11   A    
C18   H6    S    
O12   V3    S    
C33   C41   A    
O3    C1    A    
C11   H3    S    
C39   H25   S    
C12   H4    S    
C37   C49   A    
C24   C56   A    
C9    H1    S    
O7    V1    S    
C40   H26   S    
C1    O8    A    
C13   C15   A    
O8    V2    S    
C27   H21   S    
C47   C51   A    
C6    C20   S    
O15   C59   A    
C4    C7    S    
C5    C7    A    
C32   C34   A    
O19   V4    S    
C6    C8    A    
C19   H9    S    
C62   O22   D    
C53   H17   S    
C55   H15   S    
C36   C44   A    
O13   C57   A    
C10   C12   A    
O9    V2    S    
C44   C46   A    
O10   V1    S    
C38   C50   A    
C46   C48   A    
C5    C19   S    
C52   H30   S    
C58   O17   A    
C16   C18   S    
