data_str_m9_o16_o22_f0_sra.sym.172
_audit_creation_date              2013-03-05T15:48:29-0500
_audit_creation_method            fapswitch 2.2
_symmetry_space_group_name_H-M    P1
_symmetry_Int_Tables_number       1
_space_group_crystal_system       triclinic
_cell_length_a                    20.150678
_cell_length_b                    7.09919
_cell_length_c                    13.48711
_cell_angle_alpha                 90.000692
_cell_angle_beta                  103.60754
_cell_angle_gamma                 89.999332
_cell_volume                      1875.22062598

loop_
_atom_site_label
_atom_site_type_symbol
_atom_site_description
_atom_site_fract_x
_atom_site_fract_y
_atom_site_fract_z
_atom_type_partial_charge
O1    O     O_R   0.449830 0.506740 0.599960 -0.563978
O2    O     O_R   0.550170 0.006740 0.400040 -0.563996
O3    O     O_R   0.588980 0.179860 0.596720 -0.578649
O4    O     O_R   0.411020 0.679860 0.403280 -0.578612
C1    C     C_R   0.615886 0.344608 0.620548 0.900876
C2    C     C_R   0.384114 0.844609 0.379451 0.900882
O5    O     O_R   0.452740 0.177340 0.612040 -0.598141
O6    O     O_R   0.547260 0.677340 0.387960 -0.598125
O7    O     O_R   0.412960 0.002070 0.415460 -0.601437
O8    O     O_R   0.587040 0.502070 0.584540 -0.601442
C3    C     C_R   0.436720 0.345798 0.638841 0.935833
C4    C     C_R   0.563280 0.845795 0.361159 0.935787
O9    O     O_3   0.487110 0.337570 0.435490 -0.282978
O10   O     O_3   0.512890 0.837570 0.564510 -0.282997
V1    V     V_3+5 0.502390 0.064650 0.511970 1.202932
V2    V     V_3+5 0.497610 0.564650 0.488030 1.202963
C5    C     C_R   0.608406 0.882728 0.107298 -0.167807
C6    C     C_R   0.391593 0.382886 0.892695 -0.167800
H1    H     H_    0.514903 0.881807 0.157429 0.101969
H2    H     H_    0.485094 0.381986 0.842562 0.101973
H3    H     H_    0.691309 0.896741 0.981163 0.130972
H4    H     H_    0.308689 0.396948 0.018829 0.130974
H5    H     H_    0.582028 0.897121 0.027777 0.115559
H6    H     H_    0.417969 0.397355 0.972213 0.115560
C7    C     C_R   0.602871 0.854288 0.283463 -0.094715
C8    C     C_R   0.397129 0.354302 0.716537 -0.094718
C9    C     C_R   0.931779 0.844601 0.318149 -0.172971
C10   C     C_R   0.068222 0.344514 0.681854 -0.172955
C11   C     C_R   0.896395 0.834003 0.394752 -0.092658
C12   C     C_R   0.103607 0.333892 0.605252 -0.092671
C13   C     C_R   0.825267 0.837225 0.370754 -0.128555
C14   C     C_R   0.174735 0.337152 0.629249 -0.128612
C15   C     C_R   0.787330 0.851333 0.268174 0.087704
C16   C     C_R   0.212670 0.351315 0.731827 0.087717
C17   C     C_R   0.824038 0.862577 0.189948 0.111794
C18   C     C_R   0.175962 0.362598 0.810052 0.111792
C19   C     C_R   0.714371 0.855963 0.240677 0.070451
C20   C     C_R   0.285629 0.355972 0.759324 0.070433
C21   C     C_R   0.680008 0.874145 0.136121 0.194249
C22   C     C_R   0.319991 0.374246 0.863875 0.194241
C23   C     C_R   0.717181 0.883889 0.061023 -0.253038
C24   C     C_R   0.282817 0.384030 0.938972 -0.253038
C25   C     C_R   0.787984 0.877633 0.087289 -0.232046
C26   C     C_R   0.212015 0.377730 0.912708 -0.232042
C27   C     C_R   0.674054 0.843784 0.313254 -0.136520
C28   C     C_R   0.325947 0.343730 0.686750 -0.136476
C29   C     C_R   0.570089 0.873877 0.180697 -0.190451
C30   C     C_R   0.429909 0.374000 0.819298 -0.190471
C31   C     C_R   0.896373 0.858892 0.216136 -0.165049
C32   C     C_R   0.103627 0.358877 0.783864 -0.165056
H7    H     H_    0.696071 0.826564 0.393609 0.147652
H8    H     H_    0.303931 0.326419 0.606401 0.147619
H9    H     H_    0.987113 0.841544 0.338435 0.107596
H10   H     H_    0.012888 0.341423 0.661569 0.107600
H11   H     H_    0.801791 0.829120 0.434518 0.154830
H12   H     H_    0.198211 0.329046 0.565485 0.154811
H13   H     H_    0.924332 0.823202 0.473624 0.123738
H14   H     H_    0.075671 0.323044 0.526382 0.123734
H15   H     H_    0.814299 0.885659 0.026070 0.121622
H16   H     H_    0.185700 0.385787 0.973925 0.121620
C33   C     C_3   0.230463 0.693022 0.157649 -0.347891
C34   C     C_3   0.769556 0.192932 0.842299 -0.347871
H17   H     H_    0.204861 0.556698 0.165347 0.171284
H18   H     H_    0.795170 0.056649 0.834547 0.171310
H19   H     H_    0.233640 0.705852 0.076666 0.146696
H20   H     H_    0.766383 0.205645 0.923289 0.146686
C35   C     C_3   0.303420 0.690016 0.227687 -0.321759
C36   C     C_3   0.696596 0.189937 0.772270 -0.321717
H21   H     H_    0.341308 0.707169 0.180146 0.127239
H22   H     H_    0.658712 0.207014 0.819823 0.127252
H23   H     H_    0.313475 0.549543 0.264277 0.198672
H24   H     H_    0.686547 0.049492 0.735646 0.198669
H25   H     H_    0.156995 0.700772 0.306243 0.189413
H26   H     H_    0.843029 0.200975 0.693707 0.189382
C37   C     C_3   0.184052 0.834527 0.298261 -0.485513
C38   C     C_3   0.815949 0.334675 0.701732 -0.485501
C39   C     C_3   0.228246 0.044819 0.177390 -0.341956
C40   C     C_3   0.771733 0.544757 0.822673 -0.341983
C41   C     C_3   0.188225 0.859403 0.185684 0.085041
C42   C     C_3   0.811774 0.359402 0.814318 0.085056
H27   H     H_    0.200611 0.168100 0.199139 0.177025
H28   H     H_    0.799357 0.668103 0.800973 0.176980
H29   H     H_    0.231725 0.066650 0.097051 0.153948
H30   H     H_    0.768248 0.566471 0.903017 0.153955
C43   C     C_3   0.313096 0.850891 0.308697 -0.044087
C44   C     C_3   0.686904 0.350887 0.691304 -0.044070
C45   C     C_3   0.256746 0.837530 0.370986 0.304100
C46   C     C_3   0.743254 0.337649 0.629009 0.304089
C47   C     C_3   0.301127 0.038961 0.247839 -0.435108
C48   C     C_3   0.698855 0.538905 0.752213 -0.435128
H31   H     H_    0.339566 0.054755 0.201127 0.160585
H32   H     H_    0.660412 0.554618 0.798923 0.160568
H33   H     H_    0.307679 0.161187 0.300964 0.196209
H34   H     H_    0.692296 0.661179 0.699120 0.196117
H35   H     H_    0.152893 0.950225 0.319826 0.134008
H36   H     H_    0.847088 0.450452 0.680201 0.134049
H37   H     H_    0.260490 0.967961 0.418122 0.063181
H38   H     H_    0.739492 0.468113 0.581897 0.063193
O11   O     O_R   0.912980 0.203550 0.915410 -0.594800
O12   O     O_R   0.087020 0.703550 0.084590 -0.594798
O13   O     O_R   0.047270 0.535570 0.887960 -0.589841
O14   O     O_R   0.952730 0.035570 0.112040 -0.589842
C49   C     C_R   0.063917 0.368083 0.861769 0.925420
C50   C     C_R   0.936083 0.868086 0.138231 0.925421
O15   O     O_R   0.911030 0.532970 0.903270 -0.601240
O16   O     O_R   0.088970 0.032970 0.096730 -0.601245
O17   O     O_R   0.949820 0.708150 0.099970 -0.588399
O18   O     O_R   0.050180 0.208150 0.900030 -0.588397
C51   C     C_R   0.883173 0.365284 0.883784 0.877883
C52   C     C_R   0.116826 0.865284 0.116217 0.877889
O19   O     O_3   0.012900 0.375230 0.064480 -0.279250
O20   O     O_3   0.987100 0.875230 0.935520 -0.279249
V3    V     V_3+5 0.997610 0.648190 0.988040 1.153980
V4    V     V_3+5 0.002390 0.148190 0.011960 1.153981
N1    N     N_R   0.266821 0.675798 0.440820 0.225525
O21   O     O_R   0.257647 0.504061 0.406528 -0.473896
O22   O     O_R   0.281559 0.704337 0.538860 -0.435196
N2    N     N_R   0.733199 0.175959 0.559144 0.225519
O23   O     O_R   0.742395 0.004205 0.593407 -0.473895
O24   O     O_R   0.718465 0.204558 0.461111 -0.435174

loop_
_geom_bond_atom_site_label_1
_geom_bond_atom_site_label_2
_geom_bond_distance
_ccdc_geom_bond_type
C12   C14   1.393306 A    
O12   C52   1.319268 A    
C9    C11   1.388549 A    
C36   C44   1.560721 S    
O1    C3    1.309742 A    
O2    C4    1.309743 A    
O11   V4    1.998053 S    
O20   V4    2.182509 S    
C37   H35   1.113268 S    
C21   C23   1.395979 A    
C40   C48   1.550734 S    
O5    C3    1.311475 A    
C39   C47   1.550723 S    
C5    H5    1.083978 S    
C2    C43   1.522485 S    
H26   C38   1.112730 S    
O16   V4    2.020255 S    
C6    H6    1.083978 S    
C34   C42   1.553676 S    
C26   H16   1.082664 S    
H1    C29   1.083545 S    
C39   H29   1.112980 S    
N1    O21   1.301645 A    
O11   C51   1.319263 A    
C28   H8    1.077061 S    
O13   V3    2.024360 S    
C5    C21   1.404532 A    
O18   V4    2.017813 S    
C33   H17   1.112997 S    
C33   C35   1.549394 S    
N2    O23   1.301659 A    
O17   V3    2.017801 S    
C6    C22   1.404531 A    
C10   C32   1.396569 A    
N1    O22   1.301101 A    
C42   C51   1.521584 S    
C17   C31   1.416961 A    
C34   H18   1.112997 S    
C13   C15   1.418049 A    
C49   O18   1.303562 A    
C47   H31   1.113128 S    
C17   C25   1.408178 A    
C7    C29   1.394966 A    
C45   N1    1.468556 S    
C8    C30   1.394966 A    
C43   C45   1.566202 S    
C32   C49   1.464298 S    
O6    V2    2.024342 S    
H25   C37   1.112725 S    
C24   C26   1.387512 A    
C2    O7    1.300183 A    
O20   V3    1.753264 S    
C48   H34   1.113195 S    
C39   C41   1.561410 S    
C35   C43   1.560718 S    
C34   H20   1.112774 S    
C44   C46   1.566200 S    
C38   C42   1.550386 S    
O4    C2    1.297375 A    
C44   C48   1.556068 S    
C43   C47   1.556068 S    
O5    V1    2.024319 S    
C3    C8    1.459982 S    
C15   C19   1.429500 A    
C36   H24   1.109968 S    
C35   H21   1.113186 S    
C14   C16   1.418050 A    
O4    V2    2.020274 S    
O14   V4    2.024383 S    
C40   H30   1.112978 S    
C40   H28   1.113079 S    
C48   H32   1.113127 S    
C39   H27   1.113081 S    
O6    C4    1.311472 A    
C40   C42   1.561403 S    
O19   V3    2.182525 S    
O1    V2    2.014661 S    
O14   C50   1.306447 A    
O2    V1    2.014649 S    
H2    C30   1.083543 S    
H3    C23   1.084429 S    
C1    C44   1.522487 S    
C37   C45   1.559539 S    
O12   V3    1.998054 S    
C11   H13   1.082861 S    
C18   C26   1.408178 A    
C37   C41   1.550385 S    
C19   C27   1.414171 A    
C7    C27   1.397608 A    
C18   C32   1.416960 A    
O16   C52   1.316008 A    
O15   V3    2.020259 S    
C38   C46   1.559543 S    
C10   H10   1.084006 S    
C41   C52   1.521583 S    
C16   C20   1.429500 A    
C23   C25   1.387513 A    
C5    C29   1.392738 A    
O3    C1    1.297374 A    
C6    C30   1.392739 A    
C9    H9    1.084005 S    
C25   H15   1.082664 S    
O13   C49   1.306453 A    
C34   C36   1.549386 S    
C4    C7    1.459980 S    
C31   C50   1.464296 S    
C10   C12   1.388552 A    
O7    V1    2.008829 S    
C1    O8    1.300186 A    
C11   C13   1.393307 A    
O8    V2    2.008830 S    
C38   H36   1.113270 S    
C20   C22   1.423091 A    
H4    C24   1.084429 S    
O15   C51   1.316015 A    
C33   C41   1.553673 S    
C12   H14   1.082862 S    
C22   C24   1.395980 A    
C15   C17   1.426126 A    
C16   C18   1.426126 A    
O19   V4    1.753253 S    
C35   H23   1.109970 S    
C47   H33   1.113196 S    
N2    O24   1.301094 A    
C20   C28   1.414169 A    
C8    C28   1.397609 A    
C33   H19   1.112774 S    
C19   C21   1.423096 A    
O9    V2    1.753609 S    
C36   H22   1.113185 S    
C27   H7    1.077060 S    
O10   V1    1.753620 S    
O3    V1    2.020280 S    
C13   H11   1.076153 S    
C46   N2    1.468565 S    
C14   H12   1.076158 S    
C50   O17   1.303566 A    
C46   H38   1.115646 S    
C9    C31   1.396569 A    
C45   H37   1.115645 S    
