data_str_m3_o14_o16_f0_pcu.sym.125
_audit_creation_date              2013-03-05T15:52:43-0500
_audit_creation_method            fapswitch 2.2
_symmetry_space_group_name_H-M    P1
_symmetry_Int_Tables_number       1
_space_group_crystal_system       triclinic
_cell_length_a                    9.933553
_cell_length_b                    10.746322
_cell_length_c                    13.159932
_cell_angle_alpha                 92.463478
_cell_angle_beta                  73.933672
_cell_angle_gamma                 90.569904
_cell_volume                      1348.6921235

loop_
_atom_site_label
_atom_site_type_symbol
_atom_site_description
_atom_site_fract_x
_atom_site_fract_y
_atom_site_fract_z
_atom_type_partial_charge
O1    O     O_R   0.385310 0.683220 0.500000 -0.654809
O2    O     O_R   0.614640 0.683250 0.500010 -0.645130
C1    C     C_R   0.502914 0.739202 0.490997 0.882875
O3    O     O_R   0.328400 0.499950 0.653610 -0.613605
O4    O     O_R   0.557730 0.499970 0.653620 -0.656507
C2    C     C_R   0.427042 0.482288 0.700387 0.889960
Zn1   Zn    Zn3+2 0.346880 0.499980 0.499990 0.998052
Zn2   Zn    Zn3+2 0.653120 0.500020 0.500010 1.001751
O5    O     O_R   0.385360 0.316750 0.499990 -0.594382
O6    O     O_R   0.614690 0.316780 0.500000 -0.593400
O7    O     O_R   0.442270 0.500030 0.346380 -0.608960
O8    O     O_R   0.671600 0.500050 0.346390 -0.580518
C3    C     C_R   0.495443 0.260583 0.508666 0.891961
C4    C     C_R   0.574714 0.497911 0.297183 0.923855
C5    C     C_R   0.793813 0.490449 0.016599 0.285850
H1    H     H_    0.822871 0.556398 0.164285 0.205022
C6    C     C_R   0.615630 0.482146 0.182670 -0.128131
C7    C     C_R   0.255148 0.402477 0.858142 -0.160967
C8    C     C_R   0.220948 0.350062 0.956810 -0.097309
C9    C     C_R   0.323582 0.334025 0.010055 0.258823
C10   C     C_R   0.460661 0.380259 0.964600 0.001404
C11   C     C_R   0.500335 0.402048 0.855608 -0.009933
C12   C     C_R   0.559751 0.410880 0.021545 0.047664
C13   C     C_R   0.701635 0.431723 0.965073 -0.030693
C14   C     C_R   0.744707 0.397848 0.857405 0.327247
C15   C     C_R   0.644347 0.388836 0.801577 -0.215412
C16   C     C_R   0.518597 0.437237 0.130644 -0.135704
C17   C     C_R   0.751447 0.511510 0.125231 -0.137759
C18   C     C_R   0.394281 0.429532 0.806048 -0.122480
H2    H     H_    0.410324 0.427105 0.175001 0.200026
H3    H     H_    0.174068 0.414231 0.819095 0.253542
H4    H     H_    0.114646 0.318476 0.990022 0.239362
H5    H     H_    0.679786 0.362347 0.718332 0.220062
H6    H     H_    0.716035 0.890630 0.493637 0.200428
C19   C     C_R   0.268269 0.880049 0.447011 -0.186407
H7    H     H_    0.282176 0.794923 0.398367 0.185122
C20   C     C_R   0.135053 0.932264 0.478031 -0.211480
H8    H     H_    0.049291 0.883748 0.457791 0.173405
C21   C     C_R   0.111800 0.043980 0.538026 0.414719
C22   C     C_R   0.226900 0.110309 0.554702 -0.150167
H9    H     H_    0.206800 0.196831 0.601444 0.204326
C23   C     C_R   0.364285 0.060194 0.517714 0.062601
C24   C     C_R   0.379455 0.936191 0.480078 0.123258
C25   C     C_R   0.503254 0.872329 0.481417 -0.122277
C26   C     C_R   0.619776 0.937578 0.494264 -0.156883
H10   H     H_    0.706706 0.113622 0.513828 0.250876
C27   C     C_R   0.613259 0.064520 0.508948 -0.080318
C28   C     C_R   0.487886 0.127231 0.517853 -0.142501
C29   C     C_R   0.811752 0.666879 0.636418 -0.191005
H11   H     H_    0.702643 0.669581 0.642630 0.227426
C30   C     C_R   0.857724 0.750613 0.702990 -0.178932
H12   H     H_    0.782474 0.813397 0.755217 0.219850
C31   C     C_R   0.998254 0.753837 0.702341 0.326518
C32   C     C_R   0.091588 0.669101 0.635326 -0.174084
H13   H     H_    0.196116 0.669952 0.641093 0.237606
C33   C     C_R   0.048938 0.584651 0.565424 0.095298
C34   C     C_R   0.904351 0.583574 0.566175 0.108364
N1    N     N_R   0.856860 0.501200 0.500990 -0.192088
C35   C     C_R   0.951288 0.421389 0.434833 0.321577
C36   C     C_R   0.093632 0.419673 0.436818 0.260275
N2    N     N_R   0.142450 0.501280 0.501020 -0.156208
N3    N     N_R   0.971815 0.089551 0.581237 0.229107
O9    O     O_R   0.868234 0.012048 0.609941 -0.440127
O10   O     O_R   0.946703 0.208343 0.592921 -0.357264
N4    N     N_R   0.907586 0.341217 0.360648 0.255977
O11   O     O_R   0.924221 0.378209 0.265182 -0.362193
O12   O     O_R   0.893120 0.222820 0.377127 -0.330348
N5    N     N_R   0.046288 0.842587 0.769766 0.235718
O13   O     O_R   0.958881 0.919784 0.833310 -0.290956
O14   O     O_R   0.178409 0.849459 0.766217 -0.375684
N6    N     N_R   0.885747 0.358973 0.808265 0.235436
O15   O     O_R   0.944085 0.276694 0.852257 -0.346205
O16   O     O_R   0.956168 0.404569 0.719704 -0.391461
Br1   Br    Br    0.217087 0.298800 0.349958 -0.324982
Br2   Br    Br    0.961084 0.574674 0.942800 -0.457731
N7    N     N_R   0.295338 0.250114 0.095806 0.216533
O17   O     O_R   0.397830 0.188992 0.114604 -0.330151
O18   O     O_R   0.167863 0.211984 0.137309 -0.276725

loop_
_geom_bond_atom_site_label_1
_geom_bond_atom_site_label_2
_geom_bond_distance
_ccdc_geom_bond_type
H1    C17   1.083478 S    
C5    Br2   1.917231 S    
C11   C18   1.423202 A    
C19   H7    1.081181 S    
C34   N1    1.375657 A    
C31   C32   1.400619 A    
Zn1   O7    1.980955 S    
C20   H8    1.083224 S    
C19   C20   1.388774 A    
N7    O18   1.302226 A    
O4    C2    1.289621 A    
O7    C4    1.295552 A    
C29   C34   1.405923 A    
C33   C34   1.433498 A    
C9    N7    1.439630 S    
C7    C8    1.390533 A    
C31   N5    1.441224 S    
O5    C3    1.288911 A    
Zn1   N2    2.027191 S    
N3    O10   1.297603 A    
Zn2   N1    2.027378 S    
H10   C27   1.079145 S    
C8    C9    1.403345 A    
N5    O13   1.301619 A    
N4    O12   1.299751 A    
C12   C13   1.420274 A    
C14   N6    1.429171 S    
C12   C16   1.396836 A    
C19   C24   1.415425 A    
C22   C23   1.419091 A    
C35   C36   1.421748 A    
C10   C11   1.407697 A    
C16   H2    1.079355 S    
C4    C6    1.450962 S    
O3    Zn1   1.978718 S    
C8    H4    1.082340 S    
C26   C27   1.369182 A    
C32   C33   1.409123 A    
C1    C25   1.441444 S    
C30   H12   1.082662 S    
C6    C16   1.399407 A    
C13   C14   1.395139 A    
O3    C2    1.312521 A    
C21   C22   1.404529 A    
H6    C26   1.083405 S    
C29   C30   1.389696 A    
C14   C15   1.392974 A    
C36   N2    1.368468 A    
C30   C31   1.393724 A    
C24   C25   1.418948 A    
N3    O9    1.299973 A    
C3    C28   1.442771 S    
C15   H5    1.080187 S    
C27   C28   1.395724 A    
Zn2   O8    1.978719 S    
C7    C18   1.396201 A    
C23   C28   1.417747 A    
N7    O17   1.302244 A    
Zn2   O6    2.002088 S    
C22   H9    1.081339 S    
O8    C4    1.299753 A    
N4    O11   1.300157 A    
C10   C12   1.421052 A    
C23   C24   1.396329 A    
C25   C26   1.393553 A    
N6    O16   1.295669 A    
Zn1   O5    2.009537 S    
C21   N3    1.431346 S    
C32   H13   1.061761 S    
C5    C13   1.411346 A    
O1    Zn1   2.002087 S    
C6    C17   1.392383 A    
O2    Zn2   2.009536 S    
O6    C3    1.302987 A    
O4    Zn2   1.980955 S    
O2    C1    1.303690 A    
N1    C35   1.368664 A    
N6    O15   1.301037 A    
C20   C21   1.393234 A    
C35   N4    1.427817 S    
C5    C17   1.383153 A    
C36   Br1   1.904194 S    
C2    C18   1.474590 S    
C9    C10   1.421306 A    
N5    O14   1.301754 A    
C29   H11   1.064712 S    
C11   C15   1.415827 A    
C33   N2    1.378196 A    
C7    H3    1.079525 S    
O1    C1    1.286958 A    
