data_str_m4_o4_o24_f0_acs.sym.25
_audit_creation_date              2012-12-11T15:50:34-0500
_audit_creation_method            fapswitch 2.2
_symmetry_space_group_name_H-M    P1
_symmetry_Int_Tables_number       1
_space_group_crystal_system       triclinic
_cell_length_a                    18.972822
_cell_length_b                    11.044541
_cell_length_c                    18.706039
_cell_angle_alpha                 90.0008
_cell_angle_beta                  91.176345
_cell_angle_gamma                 89.999417
_cell_volume                      3918.95159939

loop_
_atom_site_label
_atom_site_type_symbol
_atom_type_description
_atom_site_fract_x
_atom_site_fract_y
_atom_site_fract_z
_atom_type_partial_charge
C1    C     C_R   0.290562 0.997246 0.860779 0.567593
C2    C     C_R   0.756831 0.584758 0.925845 -0.034785
C3    C     C_R   0.228009 0.544158 0.354743 0.559554
C4    C     C_R   0.466603 0.823092 0.645136 0.548784
C5    C     C_R   0.529087 0.823299 0.352180 0.558297
C6    C     C_R   0.970972 0.323252 0.647862 0.558066
C7    C     C_R   0.033594 0.323101 0.354971 0.548929
C8    C     C_R   0.259150 0.635193 0.644806 0.550156
C9    C     C_R   0.741550 0.633296 0.354357 0.548410
C10   C     C_R   0.758430 0.133310 0.645643 0.548019
C11   C     C_R   0.240793 0.135239 0.355224 0.550384
C12   C     C_3   0.469396 0.873993 0.035826 -0.079654
C13   C     C_R   0.743171 0.084765 0.074158 -0.034788
C14   C     C_3   0.509568 0.938136 0.975742 -0.101841
C15   C     C_3   0.990455 0.438133 0.024249 -0.101798
C16   C     C_3   0.030618 0.373986 0.964158 -0.079683
C17   C     C_3   0.457551 0.763254 0.987703 -0.094550
C18   C     C_3   0.579762 0.881444 0.003450 -0.141545
C19   C     C_3   0.920256 0.381454 0.996549 -0.141505
C20   C     C_3   0.042466 0.263242 0.012276 -0.094621
C21   C     C_3   0.498507 0.826684 0.928522 0.014994
C22   C     C_3   0.538751 0.818781 0.062425 0.050187
C23   C     C_3   0.961257 0.318785 0.937568 0.050188
C24   C     C_R   0.281897 0.014251 0.937733 -0.000568
C25   C     C_3   0.001519 0.326678 0.071463 0.014989
C26   C     C_2   0.106993 0.623484 0.903443 0.223504
C27   C     C_2   0.881213 0.637288 0.081473 0.224157
C28   C     C_2   0.618796 0.137233 0.918521 0.224184
C29   C     C_2   0.393007 0.123466 0.096563 0.223558
C30   C     C_2   0.396290 0.500902 0.086839 0.607037
C31   C     C_2   0.589389 0.454588 0.911508 0.613148
C32   C     C_2   0.910608 0.954583 0.088509 0.613121
C33   C     C_2   0.103687 0.000890 0.913168 0.606974
C34   C     C_R   0.277045 0.476656 0.025698 -0.006743
C35   C     C_R   0.695898 0.551511 0.960866 -0.036626
C36   C     C_R   0.804106 0.051529 0.039141 -0.036645
C37   C     C_R   0.222947 0.976691 0.974297 -0.006742
C38   C     C_R   0.286075 0.499512 0.955005 -0.031516
C39   C     C_R   0.691246 0.558220 0.034895 -0.042593
C40   C     C_R   0.808761 0.058242 0.965112 -0.042624
C41   C     C_R   0.727125 0.042338 0.146093 0.541512
C42   C     C_R   0.213920 0.999534 0.044991 -0.031583
C43   C     C_R   0.170534 0.585277 0.946002 -0.039809
C44   C     C_R   0.813417 0.620938 0.041811 -0.037626
C45   C     C_R   0.686588 0.120926 0.958187 -0.037616
C46   C     C_R   0.329466 0.085270 0.054000 -0.039813
C47   C     C_R   0.163257 0.565351 0.020332 -0.141045
C48   C     C_R   0.813171 0.630748 0.967504 -0.153764
C49   C     C_R   0.686828 0.130736 0.032494 -0.153773
C50   C     C_R   0.336745 0.065346 0.979670 -0.141061
C51   C     C_3   0.349711 0.428845 0.036499 -0.023423
C52   C     C_R   0.772880 0.542325 0.853911 0.541523
C53   C     C_3   0.656160 0.436923 0.955017 -0.019797
C54   C     C_3   0.843844 0.936940 0.044986 -0.019803
C55   C     C_3   0.150288 0.928856 0.963499 -0.023380
C56   C     C_3   0.360315 0.457325 0.956816 -0.244493
C57   C     C_3   0.650871 0.441483 0.036014 -0.242443
C58   C     C_3   0.849144 0.941511 0.963991 -0.242418
C59   C     C_3   0.139685 0.957324 0.043183 -0.244457
C60   C     C_R   0.237635 0.564859 0.913959 -0.009359
C61   C     C_R   0.750727 0.588434 0.076820 -0.025621
C62   C     C_R   0.749281 0.088442 0.923182 -0.025632
C63   C     C_R   0.209436 0.497240 0.139221 0.567568
C64   C     C_R   0.262364 0.064858 0.086042 -0.009366
C65   C     C_R   0.493444 0.830966 0.420169 0.017002
C66   C     C_R   0.481043 0.829136 0.569375 0.019295
C67   C     C_R   0.019403 0.329213 0.430797 0.019085
C68   C     C_R   0.006814 0.330521 0.579966 0.017185
C69   C     C_R   0.469967 0.821221 0.855550 0.540621
C70   C     C_R   0.560595 0.816267 0.137915 0.562871
C71   C     C_R   0.939406 0.316269 0.862083 0.562846
C72   C     C_R   0.030041 0.321219 0.144439 0.540684
C73   C     C_R   0.475598 0.724463 0.456244 0.024028
C74   C     C_3   0.567554 0.769471 0.955099 -0.133200
C75   C     C_R   0.469838 0.724280 0.529263 0.040030
C76   C     C_R   0.029450 0.223784 0.470645 0.039179
C77   C     C_R   0.023570 0.223706 0.543623 0.024181
C78   C     C_R   0.486931 0.939614 0.532886 -0.151383
C79   C     C_R   0.492195 0.940607 0.458235 -0.152368
C80   C     C_R   0.009607 0.440402 0.542282 -0.152400
C81   C     C_R   0.014991 0.439707 0.467617 -0.151171
C82   C     C_3   0.510385 0.602532 0.457693 -0.270000
C83   C     C_3   0.504242 0.603748 0.537923 -0.271295
C84   C     C_3   0.994025 0.104209 0.461595 -0.271987
C85   C     C_3   0.526941 0.706440 0.015379 -0.078770
C86   C     C_3   0.987559 0.102820 0.541802 -0.270060
C87   C     C_R   0.239977 0.569990 0.428862 0.023588
C88   C     C_R   0.763535 0.559078 0.568146 0.023686
C89   C     C_R   0.736426 0.058808 0.431898 0.023507
C90   C     C_R   0.260027 0.070085 0.571191 0.023555
C91   C     C_R   0.180356 0.599369 0.467512 0.046935
C92   C     C_R   0.823554 0.586770 0.529597 0.046007
C93   C     C_R   0.676535 0.087840 0.470279 0.045560
C94   C     C_R   0.319787 0.097886 0.532338 0.047747
C95   C     C_R   0.182215 0.603008 0.540331 0.025762
C96   C     C_3   0.973070 0.206443 0.984610 -0.078818
C97   C     C_R   0.821527 0.591546 0.456545 0.022824
C98   C     C_R   0.678473 0.092775 0.543324 0.022953
C99   C     C_R   0.317748 0.101510 0.459514 0.025672
C100  C     C_R   0.302531 0.530032 0.539613 -0.163355
C101  C     C_R   0.702523 0.514596 0.456683 -0.171471
C102  C     C_R   0.796990 0.013472 0.543521 -0.171637
C103  C     C_R   0.196770 0.031781 0.460692 -0.163981
C104  C     C_R   0.300373 0.528434 0.465288 -0.165310
C105  C     C_R   0.704222 0.513864 0.531193 -0.170883
C106  C     C_R   0.795374 0.012465 0.469005 -0.170360
C107  C     C_3   0.932466 0.269479 0.044894 -0.133205
C108  C     C_R   0.199150 0.030136 0.535001 -0.166597
C109  C     C_3   0.134261 0.707994 0.459832 -0.273201
C110  C     C_3   0.871516 0.692867 0.537354 -0.270289
C111  C     C_3   0.629500 0.195094 0.462281 -0.270952
C112  C     C_3   0.366799 0.205394 0.539799 -0.272332
C113  C     C_3   0.134799 0.712477 0.540285 -0.267587
C114  C     C_3   0.871274 0.697683 0.456832 -0.267736
C115  C     C_3   0.629654 0.200209 0.542773 -0.267605
C116  C     C_3   0.366089 0.209741 0.459342 -0.267651
C117  C     C_R   0.258395 0.631281 0.849246 0.518969
C118  C     C_R   0.218100 0.514236 0.062266 -0.000590
C119  C     C_R   0.739784 0.634864 0.148903 0.516853
C120  C     C_R   0.760219 0.134869 0.851099 0.516890
C121  C     C_R   0.241606 0.131278 0.150755 0.518996
C122  C     C_R   0.245541 0.578532 0.577078 0.020920
C123  C     C_R   0.757720 0.569559 0.419831 0.019597
C124  C     C_R   0.742081 0.069623 0.580189 0.019654
C125  C     C_R   0.254126 0.078601 0.422995 0.020608
C126  C     C_R   0.271981 0.044216 0.645289 0.559527
C127  C     C_R   0.726871 0.041050 0.356256 0.547697
C128  C     C_R   0.773110 0.541145 0.643773 0.547684
Cr1   Cr    Cr6+3 0.229640 0.835880 0.747370 1.034350
Cr2   Cr    Cr6+3 0.614230 0.677220 0.250660 1.008858
Cr3   Cr    Cr6+3 0.885770 0.177220 0.749340 1.008833
Cr4   Cr    Cr6+3 0.114230 0.177220 0.250660 1.027805
Cr5   Cr    Cr6+3 0.770360 0.835880 0.252630 1.049972
Cr6   Cr    Cr6+3 0.729640 0.335880 0.747370 1.049935
Cr7   Cr    Cr6+3 0.270360 0.335880 0.252630 1.034379
Cr8   Cr    Cr6+3 0.387390 0.989720 0.750850 1.018531
Cr9   Cr    Cr6+3 0.612610 0.989720 0.249150 1.034074
Cr10  Cr    Cr6+3 0.887390 0.489720 0.750850 1.034071
Cr11  Cr    Cr6+3 0.112610 0.489720 0.249150 1.018461
Cr12  Cr    Cr6+3 0.385770 0.677220 0.749340 1.027888
H1    H     H_    0.404865 0.721578 0.980305 0.138475
H2    H     H_    0.932113 0.108925 0.558226 0.167312
H3    H     H_    0.565804 0.606894 0.441088 0.166912
H4    H     H_    0.468343 0.533053 0.558141 0.136753
H5    H     H_    0.477693 0.531516 0.431069 0.130556
H6    H     H_    0.555865 0.609865 0.566851 0.140422
H7    H     H_    0.942562 0.111755 0.432472 0.140865
H8    H     H_    0.019441 0.030709 0.568417 0.130756
H9    H     H_    0.351086 0.505703 0.567061 0.128567
H10   H     H_    0.655205 0.485548 0.428628 0.119213
H11   H     H_    0.844138 0.983843 0.571689 0.119031
H12   H     H_    0.632441 0.920435 0.013185 0.116301
H13   H     H_    0.147836 0.008863 0.433480 0.130134
H14   H     H_    0.346073 0.498612 0.436470 0.119493
H15   H     H_    0.658594 0.483382 0.559700 0.117161
H16   H     H_    0.840866 0.981102 0.440615 0.117539
H17   H     H_    0.153281 0.001467 0.563979 0.120280
H18   H     H_    0.081700 0.687867 0.435862 0.135200
H19   H     H_    0.923532 0.670304 0.561457 0.134636
H20   H     H_    0.577303 0.173887 0.438117 0.134093
H21   H     H_    0.419221 0.184026 0.563653 0.135737
H22   H     H_    0.162038 0.785235 0.434875 0.139320
H23   H     H_    0.867581 0.420463 0.986824 0.116313
H24   H     H_    0.844969 0.771172 0.562378 0.138364
H25   H     H_    0.656799 0.272557 0.437200 0.138788
H26   H     H_    0.339747 0.283367 0.564786 0.138552
H27   H     H_    0.160681 0.795557 0.560674 0.171796
H28   H     H_    0.847711 0.782516 0.436567 0.171262
H29   H     H_    0.654011 0.284432 0.562958 0.172025
H30   H     H_    0.340916 0.293466 0.438999 0.170842
H31   H     H_    0.082524 0.693256 0.563402 0.122820
H32   H     H_    0.923068 0.674864 0.433773 0.122756
H33   H     H_    0.577610 0.178941 0.565769 0.122479
H34   H     H_    0.095150 0.221552 0.019657 0.138391
H35   H     H_    0.418110 0.189132 0.436076 0.123261
H36   H     H_    0.428805 0.906134 0.072615 0.145303
H37   H     H_    0.497589 0.030107 0.957008 0.202297
H38   H     H_    0.002441 0.530099 0.042987 0.202283
H39   H     H_    0.071202 0.406130 0.927363 0.145274
H40   H     H_    0.606991 0.729798 0.919063 0.145881
H41   H     H_    0.531732 0.611861 0.033405 0.172983
H42   H     H_    0.968262 0.111867 0.966591 0.173042
H43   H     H_    0.893032 0.229800 0.080930 0.145848
H44   H     H_    0.114728 0.590157 0.045620 0.173283
H45   H     H_    0.490560 0.023484 0.562190 0.120452
H46   H     H_    0.862071 0.656299 0.942654 0.211914
H47   H     H_    0.637925 0.156274 0.057340 0.211892
H48   H     H_    0.385279 0.090133 0.954383 0.173282
H49   H     H_    0.810496 0.861721 0.063954 0.144995
H50   H     H_    0.151610 0.831451 0.951225 0.161610
H51   H     H_    0.348405 0.331437 0.048764 0.161646
H52   H     H_    0.689504 0.361705 0.936037 0.145014
H53   H     H_    0.397348 0.532070 0.946118 0.154890
H54   H     H_    0.596921 0.451547 0.056618 0.199775
H55   H     H_    0.903094 0.951594 0.943396 0.199843
H56   H     H_    0.501357 0.025011 0.431188 0.121281
H57   H     H_    0.102647 0.032062 0.053888 0.154902
H58   H     H_    0.367085 0.374889 0.923563 0.148457
H59   H     H_    0.681678 0.369365 0.063700 0.124674
H60   H     H_    0.818350 0.869389 0.936295 0.124680
H61   H     H_    0.132925 0.874884 0.076433 0.148481
H62   H     H_    0.104435 0.609538 0.846067 0.143554
H63   H     H_    0.889703 0.595303 0.133404 0.125001
H64   H     H_    0.610305 0.095170 0.866624 0.124955
H65   H     H_    0.395560 0.109518 0.153940 0.143587
H66   H     H_    0.484425 0.501567 0.148934 0.339189
H67   H     H_    0.001749 0.524969 0.569647 0.120453
H68   H     H_    0.486488 0.424196 0.900730 0.332349
H69   H     H_    0.013512 0.924218 0.099283 0.332356
H70   H     H_    0.015477 0.001597 0.851198 0.339172
H71   H     H_    0.012736 0.523963 0.438585 0.121335
H72   H     H_    0.029466 0.032728 0.441418 0.136668
O1    O     O_R   0.214300 0.709080 0.827500 -0.546768
O2    O     O_R   0.543340 0.717710 0.330180 -0.518304
O3    O     O_R   0.956660 0.217710 0.669820 -0.518246
O4    O     O_R   0.043340 0.217710 0.330180 -0.509513
O5    O     O_R   0.320590 0.625770 0.672930 -0.508190
O6    O     O_R   0.679410 0.625770 0.327070 -0.512678
O7    O     O_R   0.820590 0.125770 0.672930 -0.512726
O8    O     O_R   0.179410 0.125770 0.327070 -0.508530
O9    O     O_3   0.334270 0.834280 0.749190 -0.281036
O10   O     O_3   0.665730 0.834280 0.250810 -0.280846
O11   O     O_3   0.834270 0.334280 0.749190 -0.280851
O12   O     O_R   0.785700 0.709080 0.172500 -0.529883
O13   O     O_3   0.165730 0.334280 0.250810 -0.281105
O14   O     O_R   0.236190 0.958390 0.823150 -0.467767
O15   O     O_R   0.763810 0.958390 0.176850 -0.468784
O16   O     O_R   0.736190 0.458390 0.823150 -0.468803
O17   O     O_R   0.263810 0.458390 0.176850 -0.467816
O18   O     O_R   0.332090 0.075280 0.831290 -0.512389
O19   O     O_R   0.667910 0.075280 0.168710 -0.528571
O20   O     O_R   0.832090 0.575280 0.831290 -0.528573
O21   O     O_R   0.167910 0.575280 0.168710 -0.512377
O22   O     O_R   0.446280 0.918040 0.826620 -0.529490
O23   O     O_R   0.714300 0.209080 0.827500 -0.529824
O24   O     O_R   0.553720 0.918040 0.173380 -0.487791
O25   O     O_R   0.946280 0.418040 0.826620 -0.487829
O26   O     O_R   0.053720 0.418040 0.173380 -0.529415
O27   O     O_R   0.457080 0.716270 0.831760 -0.494287
O28   O     O_R   0.542920 0.716270 0.168240 -0.516092
O29   O     O_R   0.957080 0.216270 0.831760 -0.516129
O30   O     O_R   0.042920 0.216270 0.168240 -0.494242
O31   O     O_R   0.320980 0.624440 0.823040 -0.500945
O32   O     O_R   0.679020 0.624440 0.176960 -0.512027
O33   O     O_R   0.820980 0.124440 0.823040 -0.512001
O34   O     O_R   0.285700 0.209080 0.172500 -0.546725
O35   O     O_R   0.179020 0.124440 0.176960 -0.500923
O36   O     O_R   0.213880 0.710510 0.665560 -0.529658
O37   O     O_R   0.786120 0.710510 0.334440 -0.525251
O38   O     O_R   0.713880 0.210510 0.665560 -0.525305
O39   O     O_R   0.286120 0.210510 0.334440 -0.529546
O40   O     O_R   0.235800 0.959720 0.673040 -0.503249
O41   O     O_R   0.764200 0.959720 0.326960 -0.498674
O42   O     O_R   0.735800 0.459720 0.673040 -0.498759
O43   O     O_R   0.264200 0.459720 0.326960 -0.503129
O44   O     O_R   0.331670 0.076720 0.669350 -0.515183
O45   O     O_R   0.445900 0.919370 0.676500 -0.507881
O46   O     O_R   0.668330 0.076720 0.330650 -0.519604
O47   O     O_R   0.831670 0.576720 0.669350 -0.519553
O48   O     O_R   0.168330 0.576720 0.330650 -0.515252
O49   O     O_2   0.055603 0.666781 0.932303 -0.471154
O50   O     O_2   0.928528 0.697194 0.056248 -0.482378
O51   O     O_2   0.571486 0.197185 0.943707 -0.482398
O52   O     O_2   0.444401 0.166751 0.067707 -0.471197
O53   O     O_2   0.380185 0.603563 0.104890 -0.516042
O54   O     O_R   0.457893 0.447308 0.114013 -0.662290
O55   O     O_2   0.592769 0.489366 0.849597 -0.511478
O56   O     O_R   0.554100 0.919370 0.323500 -0.504457
O57   O     O_R   0.524217 0.425606 0.939710 -0.648248
O58   O     O_2   0.907213 0.989272 0.150440 -0.511468
O59   O     O_R   0.975790 0.925670 0.060299 -0.648222
O60   O     O_2   0.119847 0.103452 0.894988 -0.515918
O61   O     O_R   0.042004 0.947382 0.886149 -0.662281
O62   O     O_R   0.945900 0.419370 0.676500 -0.504263
O63   O     O_R   0.054100 0.419370 0.323500 -0.508096
O64   O     O_R   0.456660 0.717710 0.669820 -0.509487

loop_
_geom_bond_atom_site_label_1
_geom_bond_atom_site_label_2
_ccdc_geom_bond_type
C2    C35   A    
C34   C118  A    
C30   C51   S    
C41   O15   A    
C33   C55   S    
C4    O45   A    
C65   C79   A    
C54   H49   S    
C55   C59   S    
C61   C119  S    
C14   C18   S    
C32   O58   D    
C93   C98   A    
C30   O54   S    
Cr9   O19   S    
C50   H48   S    
C76   C84   S    
C13   C41   S    
C98   C124  A    
C40   C62   A    
C113  H31   S    
C26   O49   D    
Cr9   O46   S    
C15   C19   S    
C112  H21   S    
C8    O36   A    
C58   H60   S    
C34   C51   S    
C101  C123  A    
C29   O52   D    
Cr10  O62   S    
C27   H63   S    
C71   O25   A    
C14   C21   S    
Cr3   O7    S    
C11   C125  S    
C84   C86   S    
C7    O63   A    
C109  H22   S    
C120  O23   A    
C54   C58   S    
C83   H4    S    
C80   C81   A    
Cr9   O56   S    
C18   H12   S    
Cr12  O9    S    
C15   C25   S    
C35   C53   S    
C20   C25   S    
C66   C75   A    
C3    O48   A    
C39   C57   S    
C12   C22   S    
C101  H10   S    
C100  C104  A    
Cr5   O12   S    
C29   H65   S    
C23   C96   S    
Cr10  O25   S    
C126  O40   A    
C51   C56   S    
Cr11  O21   S    
C22   C85   S    
C94   C112  S    
C37   C42   A    
Cr2   O6    S    
C8    O5    A    
Cr3   O33   S    
C91   C109  S    
C63   O17   A    
Cr2   O32   S    
C27   C44   S    
C103  H13   S    
C47   C118  A    
C20   H34   S    
C6    O3    A    
C41   O19   A    
Cr8   O22   S    
C12   C17   S    
C31   O57   S    
C29   C46   S    
C128  O42   A    
Cr6   O23   S    
C38   C56   S    
C102  C106  A    
C103  C108  A    
C111  H25   S    
Cr6   O16   S    
C119  O32   A    
C110  C114  S    
C62   C120  S    
C7    O4    A    
C16   H39   S    
C109  C113  S    
C102  H11   S    
C12   H36   S    
C100  H9    S    
Cr7   O43   S    
C6    C68   S    
C20   C96   S    
Cr1   O40   S    
C18   C74   S    
C34   C38   A    
C57   H59   S    
Cr11  O26   S    
C24   C50   A    
C73   C75   A    
Cr7   O34   S    
Cr11  O63   S    
C21   C69   S    
C70   O28   A    
C102  C124  A    
C109  H18   S    
C1    O18   A    
C32   C54   S    
C22   C70   S    
C53   H52   S    
C52   O16   A    
C92   C97   A    
C90   C94   A    
C56   H58   S    
C9    O6    A    
C101  C105  A    
C66   C78   A    
Cr3   O11   S    
C28   C45   S    
C40   C58   S    
C87   C91   A    
Cr8   O9    S    
C3    C87   S    
C121  O35   A    
C28   H64   S    
C128  O47   A    
C23   C71   S    
C36   C40   A    
Cr2   O10   S    
C36   C54   S    
C76   C77   A    
Cr6   O42   S    
C13   C36   A    
C99   C125  A    
Cr3   O29   S    
C65   C73   A    
Cr5   O41   S    
C99   C116  S    
C78   H45   S    
C63   C118  S    
C53   C57   S    
C19   C23   S    
C52   O20   A    
C70   O24   A    
C108  H17   S    
C2    C48   A    
C19   H23   S    
C27   O50   D    
C31   O55   D    
C21   C74   S    
H68   O57   S    
Cr12  O27   S    
C17   C21   S    
C79   H56   S    
C56   H53   S    
C46   C64   A    
C89   C93   A    
C10   O38   A    
C4    O64   A    
Cr1   O14   S    
C9    O37   A    
C111  H20   S    
C55   H50   S    
Cr3   O3    S    
C48   H46   S    
C72   O30   A    
C63   O21   A    
C83   H6    S    
Cr5   O10   S    
C59   H61   S    
C49   H47   S    
C1    O14   A    
C45   C49   A    
C58   H55   S    
C16   C20   S    
C69   O22   A    
C112  H26   S    
Cr11  O48   S    
C5    C65   S    
C24   C37   A    
C90   C126  S    
C127  O46   A    
C116  H30   S    
C60   C117  S    
C30   O53   D    
C88   C92   A    
C45   C62   A    
C31   C53   S    
Cr9   O24   S    
C117  O1    A    
C69   O27   A    
C71   O29   A    
C13   C49   A    
C2    C52   S    
C43   C60   A    
C93   C111  S    
Cr4   O4    S    
C117  O31   A    
C95   C122  A    
Cr1   O9    S    
C26   C43   S    
C81   H71   S    
C96   C107  S    
C12   C14   S    
C77   C86   S    
C67   C81   A    
C16   C23   S    
C106  H16   S    
C74   C85   S    
C33   O60   D    
C82   H3    S    
C89   C106  A    
C17   C85   S    
C120  O33   A    
Cr6   O38   S    
C68   C80   A    
Cr5   O37   S    
C73   C82   S    
C112  C116  S    
C82   H5    S    
C51   H51   S    
C86   H2    S    
C89   C127  S    
C84   H7    S    
Cr4   O30   S    
C68   C77   A    
Cr9   O10   S    
C115  H33   S    
Cr10  O47   S    
C121  O34   A    
C110  H24   S    
Cr7   O13   S    
C116  H35   S    
C105  H15   S    
C127  O41   A    
Cr8   O44   S    
Cr8   O18   S    
Cr5   O15   S    
Cr7   O39   S    
C47   H44   S    
C86   H8    S    
C42   C59   S    
C113  H27   S    
C42   C64   A    
C126  O44   A    
C84   H72   S    
Cr4   O35   S    
C114  H28   S    
C85   H41   S    
C39   C61   A    
C44   C61   A    
C28   O51   D    
C46   C50   A    
C10   C124  S    
H70   O61   S    
C96   H42   S    
C57   H54   S    
Cr11  O13   S    
Cr12  O31   S    
C104  H14   S    
Cr12  O64   S    
C18   C22   S    
C90   C108  A    
C15   C16   S    
C97   C123  A    
Cr4   O13   S    
C95   C113  S    
H66   O54   S    
C4    C66   S    
C88   C105  A    
C78   C79   A    
C38   C60   A    
C92   C110  S    
C98   C115  S    
C33   O61   S    
C94   C99   A    
C59   H57   S    
C114  H32   S    
C35   C39   A    
Cr2   O28   S    
Cr10  O20   S    
C119  O12   A    
C9    C123  S    
C91   C95   A    
C115  H29   S    
Cr2   O2    S    
C72   O26   A    
C75   C83   S    
C8    C122  S    
Cr1   O1    S    
C6    O62   A    
C17   H1    S    
C3    O43   A    
C100  C122  A    
C14   H37   S    
C5    O2    A    
C11   O39   A    
C7    C67   S    
C87   C104  A    
C37   C55   S    
C44   C48   A    
Cr12  O5    S    
H69   O59   S    
C80   H67   S    
C74   H40   S    
C10   O7    A    
C26   H62   S    
C1    C24   S    
C88   C128  S    
C82   C83   S    
Cr7   O17   S    
C15   H38   S    
C107  H43   S    
Cr8   O45   S    
C25   C72   S    
C32   O59   S    
C111  C115  S    
C67   C76   A    
Cr4   O8    S    
C97   C114  S    
Cr10  O11   S    
C103  C125  A    
C43   C47   A    
C11   O8    A    
Cr6   O11   S    
C25   C107  S    
C110  H19   S    
C64   C121  S    
C5    O56   A    
Cr1   O36   S    
C19   C107  S    
