data_str_m2_o14_o22_f0_pcu.sym.7
_audit_creation_date              2012-10-26T20:19:37-0400
_audit_creation_method            fapswitch 2.2
_symmetry_space_group_name_H-M    P1
_symmetry_Int_Tables_number       1
_space_group_crystal_system       triclinic
_cell_length_a                    10.734312
_cell_length_b                    10.784918
_cell_length_c                    9.608519
_cell_angle_alpha                 90.110054
_cell_angle_beta                  89.962699
_cell_angle_gamma                 92.370914
_cell_volume                      1111.41104834

loop_
_atom_site_label
_atom_site_type_symbol
_atom_type_description
_atom_site_fract_x
_atom_site_fract_y
_atom_site_fract_z
_atom_type_partial_charge
C1    C     C_R   0.495595 0.262652 0.499919 0.538387
C2    C     C_R   0.395734 0.061786 0.579523 0.027899
C3    C     C_R   0.486652 0.128556 0.499670 -0.000094
C4    C     C_R   0.259927 0.499489 0.499804 0.532274
C5    C     C_R   0.571694 0.066862 0.417510 -0.154115
C6    C     C_R   0.571823 0.938955 0.417865 -0.157014
C7    C     C_R   0.487408 0.870693 0.501022 0.003518
C8    C     C_R   0.665874 0.664319 0.144025 -0.092184
C9    C     C_R   0.747184 0.744405 0.072019 -0.179295
C10   C     C_R   0.747043 0.744575 0.928617 -0.173411
C11   C     C_R   0.665582 0.664650 0.856367 -0.086485
C12   C     C_3   0.877988 0.499552 0.498950 0.051447
C13   C     C_R   0.581423 0.580863 0.925343 0.158099
C14   C     C_R   0.581486 0.580747 0.074839 0.159659
C15   C     C_R   0.422274 0.423339 0.073748 -0.005786
C16   C     C_R   0.495879 0.737122 0.500264 0.525004
C17   C     C_R   0.422320 0.423356 0.925918 -0.004641
C18   C     C_R   0.739971 0.499855 0.499754 0.532748
C19   C     C_3   0.066765 0.382480 0.574546 -0.239944
C20   C     C_3   0.922898 0.382319 0.573978 -0.226792
C21   C     C_3   0.076446 0.616839 0.573571 -0.234285
C22   C     C_3   0.071316 0.498593 0.347341 -0.229091
C23   C     C_3   0.932750 0.616417 0.574812 -0.239869
C24   C     C_3   0.121737 0.499317 0.498950 0.051964
C25   C     C_3   0.928712 0.499719 0.347347 -0.230219
C26   C     C_R   0.301407 0.121955 0.653504 -0.115423
C27   C     C_R   0.212112 0.053876 0.730029 -0.130551
C28   C     C_R   0.214030 0.925120 0.733306 -0.128057
C29   C     C_R   0.304819 0.863728 0.659412 -0.110879
C30   C     C_R   0.396818 0.930690 0.581366 0.029694
Cu1   Cu    Cu3+1 0.499990 0.499990 0.640660 0.901615
Cu2   Cu    Cu3+1 0.500010 0.500010 0.359340 0.910078
H1    H     H_    0.100655 0.380426 0.683948 0.117255
H2    H     H_    0.358559 0.360492 0.870721 0.108335
H3    H     H_    0.888126 0.379545 0.683135 0.132917
H4    H     H_    0.111382 0.620550 0.682589 0.121135
H5    H     H_    0.899540 0.618000 0.684478 0.122034
H6    H     H_    0.109447 0.581323 0.289824 0.131579
H7    H     H_    0.101382 0.414534 0.291078 0.119940
H8    H     H_    0.899034 0.583720 0.291211 0.120489
H9    H     H_    0.900728 0.701789 0.523267 0.097137
H10   H     H_    0.640305 0.118243 0.355139 0.123867
H11   H     H_    0.300167 0.763723 0.662480 0.141134
H12   H     H_    0.113654 0.701467 0.519088 0.110544
H13   H     H_    0.673607 0.672196 0.253680 0.176376
H14   H     H_    0.810723 0.806937 0.128269 0.107679
H15   H     H_    0.672958 0.672825 0.746714 0.181444
H16   H     H_    0.884805 0.297262 0.520597 0.108672
H17   H     H_    0.890532 0.416919 0.289719 0.131104
H18   H     H_    0.293710 0.221456 0.650866 0.121320
H19   H     H_    0.140381 0.101229 0.785831 0.100990
H20   H     H_    0.143857 0.872383 0.791826 0.103944
H21   H     H_    0.640376 0.893003 0.355483 0.109542
H22   H     H_    0.358489 0.360466 0.128744 0.112811
H23   H     H_    0.098133 0.297161 0.521985 0.104782
H24   H     H_    0.810502 0.807223 0.872579 0.110983
N1    N     N_R   0.501200 0.501210 0.147910 -0.243217
N2    N     N_R   0.501250 0.501290 0.852040 -0.243905
O1    O     O_R   0.499990 0.319640 0.618810 -0.499824
O2    O     O_R   0.500000 0.319660 0.381240 -0.498545
O3    O     O_R   0.317680 0.499970 0.618790 -0.520175
O4    O     O_R   0.317700 0.499990 0.381210 -0.506231
O5    O     O_R   0.500000 0.680340 0.618760 -0.526566
O6    O     O_R   0.500010 0.680360 0.381190 -0.513644
O7    O     O_R   0.682300 0.500010 0.618790 -0.521506
O8    O     O_R   0.682320 0.500030 0.381210 -0.526649

loop_
_geom_bond_atom_site_label_1
_geom_bond_atom_site_label_2
_ccdc_geom_bond_type
C5    H10   S    
C6    C7    A    
C16   O5    A    
Cu1   O5    S    
C18   O8    A    
C21   H12   S    
C15   N1    A    
C9    C10   A    
C12   C25   S    
C11   H15   S    
C19   C20   S    
C23   H9    S    
C17   N2    A    
C2    C30   A    
C25   H8    S    
C12   C20   S    
C26   H18   S    
C19   C24   S    
Cu2   O4    S    
C9    H14   S    
C2    C26   A    
C21   H4    S    
C13   C14   A    
C29   H11   S    
C18   O7    A    
C28   H20   S    
C12   C23   S    
C26   C27   A    
C20   H16   S    
Cu2   N1    S    
C22   H7    S    
Cu1   O3    S    
Cu1   N2    S    
C7    C16   S    
C27   H19   S    
C2    C3    A    
C22   C24   S    
C1    O1    A    
C21   C23   S    
C19   H1    S    
C5    C6    A    
C4    C24   S    
C25   H17   S    
C21   C24   S    
C17   H2    S    
Cu2   O2    S    
C6    H21   S    
C12   C18   S    
C22   H6    S    
C15   H22   S    
C4    O4    A    
C11   C13   A    
C10   H24   S    
Cu2   O6    S    
Cu2   O8    S    
C10   C11   A    
C1    O2    A    
C19   H23   S    
C27   C28   A    
C15   C17   A    
C14   N1    A    
Cu1   O7    S    
C8    H13   S    
C28   C29   A    
C8    C14   A    
C13   N2    A    
C16   O6    A    
C3    C5    A    
C23   H5    S    
C20   H3    S    
C4    O3    A    
C22   C25   S    
C29   C30   A    
Cu1   Cu2   S    
C8    C9    A    
C1    C3    S    
Cu1   O1    S    
C7    C30   A    
