data_str_m9_o2_o2_f0_sra.sym.27
_audit_creation_date              2012-12-11T16:35:16-0500
_audit_creation_method            fapswitch 2.2
_symmetry_space_group_name_H-M    P1
_symmetry_Int_Tables_number       1
_space_group_crystal_system       triclinic
_cell_length_a                    6.928729
_cell_length_b                    17.660035
_cell_length_c                    19.522724
_cell_angle_alpha                 109.151621
_cell_angle_beta                  90.457359
_cell_angle_gamma                 90.534186
_cell_volume                      2256.36650927

loop_
_atom_site_label
_atom_site_type_symbol
_atom_type_description
_atom_site_fract_x
_atom_site_fract_y
_atom_site_fract_z
_atom_type_partial_charge
O1    O     O_R   0.505700 0.440210 0.561730 -0.544097
O2    O     O_R   0.169350 0.406300 0.412660 -0.536981
O3    O     O_R   0.005650 0.559790 0.438270 -0.544326
C1    C     C_R   0.337923 0.382944 0.385031 0.699392
O4    O     O_R   0.175560 0.430650 0.559600 -0.542844
O5    O     O_R   0.011900 0.584320 0.586250 -0.534923
C2    C     C_R   0.344940 0.415366 0.580999 0.681452
O6    O     O_R   0.499450 0.415680 0.413750 -0.532910
O7    O     O_3   0.341370 0.550390 0.508570 -0.367644
V1    V     V_3+5 0.063940 0.490650 0.498410 1.414167
O8    O     O_R   0.682570 0.593700 0.587340 -0.538586
C3    C     C_R   0.852639 0.616659 0.614934 0.697370
O9    O     O_R   0.676370 0.569350 0.440400 -0.542327
C4    C     C_R   0.845179 0.584381 0.418799 0.682874
V2    V     V_3+5 0.564750 0.509350 0.501590 1.416365
O10   O     O_3   0.837190 0.449610 0.491430 -0.366848
C5    C     C_R   0.038775 0.680994 0.285044 -0.147810
H1    H     H_    0.171578 0.679652 0.255883 0.102148
C6    C     C_R   0.027581 0.636038 0.332112 -0.164516
H2    H     H_    0.152826 0.602536 0.338330 0.116401
C7    C     C_R   0.856524 0.633245 0.369615 -0.050740
C8    C     C_R   0.697176 0.677072 0.359111 -0.163257
H3    H     H_    0.563450 0.676647 0.387346 0.121013
C9    C     C_R   0.709212 0.723052 0.312804 -0.143637
H4    H     H_    0.584774 0.757486 0.307704 0.098613
C10   C     C_R   0.880099 0.725566 0.274795 0.091572
C11   C     C_R   0.729484 0.784591 0.185457 -0.145245
H5    H     H_    0.592512 0.756586 0.189672 0.102260
C12   C     C_R   0.740954 0.830358 0.139052 -0.173513
H6    H     H_    0.612056 0.837051 0.109908 0.121325
C13   C     C_R   0.916658 0.866044 0.129615 -0.050781
C14   C     C_R   0.080493 0.855137 0.168118 -0.156204
H7    H     H_    0.217693 0.882442 0.162735 0.116592
C15   C     C_R   0.068475 0.810311 0.215375 -0.143432
H8    H     H_    0.196835 0.805281 0.245461 0.097764
C16   C     C_R   0.892814 0.774084 0.224691 0.090070
H9    H     H_    0.607191 0.653053 0.928567 0.117021
C17   C     C_R   0.063658 0.895363 0.750127 -0.145355
C18   C     C_R   0.131923 0.903406 0.685921 -0.125568
C19   C     C_R   0.112985 0.840179 0.621189 -0.121103
C20   C     C_R   0.025770 0.768416 0.620186 -0.131058
C21   C     C_R   0.957144 0.758023 0.684703 0.069520
C22   C     C_R   0.976406 0.822837 0.751036 0.067908
C23   C     C_R   0.866818 0.685199 0.683629 -0.186213
C24   C     C_R   0.795432 0.677192 0.748842 0.068442
C25   C     C_R   0.814695 0.742006 0.815179 0.069574
C26   C     C_R   0.905057 0.814825 0.816250 -0.186557
C27   C     C_R   0.708199 0.604663 0.749750 -0.143094
C28   C     C_R   0.640053 0.596592 0.813960 -0.119978
C29   C     C_R   0.658968 0.659823 0.878697 -0.118164
C30   C     C_R   0.746082 0.731606 0.879699 -0.131689
H10   H     H_    0.079081 0.946911 0.798691 0.112059
H11   H     H_    0.198581 0.959264 0.686356 0.117331
H12   H     H_    0.164832 0.846939 0.571326 0.114048
H13   H     H_    0.011335 0.721708 0.568142 0.104627
H14   H     H_    0.692724 0.553135 0.701178 0.107966
H15   H     H_    0.573514 0.540708 0.813518 0.123642
H16   H     H_    0.760477 0.778316 0.931745 0.103432
H17   H     H_    0.189357 0.469433 0.176145 0.119669
C31   C     C_R   0.445091 0.224429 0.384661 -0.127092
C32   C     C_R   0.506650 0.150212 0.386528 -0.119851
C33   C     C_R   0.539926 0.088122 0.322346 -0.119791
C34   C     C_R   0.512112 0.099728 0.255735 -0.144168
C35   C     C_R   0.450646 0.174465 0.252029 0.065721
C36   C     C_R   0.415967 0.238201 0.317938 0.070707
C37   C     C_R   0.422428 0.186071 0.184150 -0.181418
C38   C     C_R   0.361032 0.261936 0.182575 0.072356
C39   C     C_R   0.323407 0.325273 0.248392 0.065961
C40   C     C_R   0.351475 0.313686 0.316285 -0.184259
C41   C     C_R   0.338795 0.276541 0.115988 -0.124941
C42   C     C_R   0.276797 0.350627 0.113952 -0.103720
C43   C     C_R   0.237305 0.411948 0.177994 -0.116126
C44   C     C_R   0.260995 0.399854 0.244590 -0.143821
H18   H     H_    0.419135 0.270566 0.436024 0.093426
H19   H     H_    0.587380 0.030554 0.324140 0.117529
H20   H     H_    0.539985 0.049601 0.207326 0.102778
H21   H     H_    0.372073 0.231245 0.064991 0.078579
H22   H     H_    0.260227 0.360589 0.062390 0.125708
H23   H     H_    0.229788 0.449531 0.292919 0.099424
C45   C     C_R   0.547527 0.309413 0.706642 -0.140190
H24   H     H_    0.686515 0.304059 0.730274 0.109848
C46   C     C_R   0.535360 0.354961 0.660072 -0.173798
H25   H     H_    0.666061 0.382556 0.648694 0.119789
C47   C     C_R   0.356989 0.365748 0.629589 -0.053678
C48   C     C_R   0.191346 0.329132 0.646540 -0.161006
H26   H     H_    0.051816 0.335688 0.623868 0.120244
C49   C     C_R   0.203696 0.283271 0.692908 -0.146533
H27   H     H_    0.073418 0.255225 0.704020 0.101125
C50   C     C_R   0.381799 0.273139 0.723977 0.098150
C51   C     C_R   0.246199 0.231877 0.825731 -0.125994
H28   H     H_    0.126686 0.271609 0.827666 0.148833
C52   C     C_R   0.254132 0.189434 0.875531 -0.025307
C53   C     C_R   0.414026 0.138692 0.874208 -0.136406
C54   C     C_R   0.562462 0.134767 0.824408 -0.086668
H29   H     H_    0.685563 0.096586 0.821849 0.129136
C55   C     C_R   0.552583 0.177961 0.775874 -0.124021
H30   H     H_    0.668303 0.171976 0.737581 0.104530
C56   C     C_R   0.393569 0.226564 0.775484 0.034364
O11   O     O_R   0.273230 0.084330 0.086440 -0.537785
O12   O     O_R   0.596660 0.069390 0.940470 -0.526662
O13   O     O_R   0.760270 0.915710 0.913690 -0.536287
C57   C     C_R   0.426616 0.087024 0.921215 0.668713
O14   O     O_R   0.603330 0.093680 0.087390 -0.534586
O15   O     O_R   0.766990 0.940160 0.061660 -0.545564
C58   C     C_R   0.434997 0.116855 0.115273 0.695409
O16   O     O_R   0.266510 0.059870 0.938470 -0.553269
O17   O     O_3   0.431050 0.949630 0.991510 -0.368977
V3    V     V_3+5 0.708490 0.009340 0.001580 1.436681
O18   O     O_R   0.096270 0.930570 0.059390 -0.542520
C59   C     C_R   0.927531 0.915377 0.080881 0.680606
O19   O     O_R   0.089600 0.906290 0.912460 -0.537686
C60   C     C_R   0.919441 0.883341 0.884950 0.696499
V4    V     V_3+5 0.207670 0.990600 0.998190 1.411895
O20   O     O_3   0.935250 0.050360 0.008480 -0.367157
H31   H     H_    0.528001 0.140766 0.438109 0.115473
C61   C     C_2   0.098160 0.202762 0.930067 0.341279
H32   H     H_    0.116733 0.187089 0.978761 0.076228
O21   O     O_2   0.945910 0.233175 0.921804 -0.536926

loop_
_geom_bond_atom_site_label_1
_geom_bond_atom_site_label_2
_ccdc_geom_bond_type
C49   H27   S    
C53   C54   A    
C11   C12   A    
C20   C21   A    
O19   C60   A    
C1    O6    A    
O19   V4    S    
C48   H26   S    
O13   C60   A    
C33   C34   A    
C5    C10   A    
C4    C7    S    
C6    C7    A    
C9    C10   A    
O5    C3    A    
C17   C18   A    
C17   H10   S    
C34   H20   S    
C26   C60   S    
C28   H15   S    
C61   H32   S    
C15   H8    S    
V3    O20   S    
C45   C50   A    
C20   H13   S    
O8    V2    S    
O17   V4    S    
C6    H2    S    
C39   C40   A    
C55   C56   A    
C32   H31   S    
O17   V3    S    
C57   O16   A    
C41   C42   A    
O1    V2    S    
O7    V1    S    
O18   V4    S    
H17   C43   S    
O13   V3    S    
C2    C47   S    
O9    C4    A    
C41   H21   S    
C32   C33   A    
C21   C23   A    
C1    C40   S    
C29   C30   A    
C48   C49   A    
O11   C58   A    
O12   V3    S    
O16   V4    S    
C38   C39   A    
C47   C48   A    
C45   C46   A    
C18   C19   A    
O4    C2    A    
C43   C44   A    
C39   C44   A    
C24   C25   A    
C25   C30   A    
C31   C32   A    
C35   C37   A    
O2    C1    A    
O5    V1    S    
C12   H6    S    
C51   C52   A    
C13   C14   A    
C55   H30   S    
O12   C57   A    
C5    H1    S    
C44   H23   S    
O14   C58   A    
C30   H16   S    
C9    H4    S    
C54   C55   A    
C52   C61   S    
O14   V3    S    
O3    C4    A    
C10   C16   S    
C19   C20   A    
C31   C36   A    
C28   C29   A    
O6    V2    S    
C19   H12   S    
C49   C50   A    
C8    C9    A    
C33   H19   S    
C21   C22   A    
C37   C58   S    
O2    V1    S    
O15   V3    S    
C23   C24   A    
V4    O20   S    
C24   C27   A    
C27   H14   S    
C25   C26   A    
C27   C28   A    
O1    C2    A    
C45   H24   S    
C53   C57   S    
O11   V4    S    
O8    C3    A    
C11   C16   A    
C46   C47   A    
C50   C56   S    
C38   C41   A    
C35   C36   A    
O9    V2    S    
O7    V2    S    
C17   C22   A    
C3    C23   S    
O3    V1    S    
V1    O10   S    
O18   C59   A    
C14   H7    S    
O15   C59   A    
H9    C29   S    
C51   H28   S    
C18   H11   S    
C36   C40   A    
C31   H18   S    
C52   C53   A    
C5    C6    A    
C13   C59   S    
C61   O21   D    
C37   C38   A    
C15   C16   A    
C54   H29   S    
C34   C35   A    
O4    V1    S    
C42   C43   A    
C12   C13   A    
C46   H25   S    
C11   H5    S    
C8    H3    S    
C7    C8    A    
C22   C26   A    
C51   C56   A    
C42   H22   S    
V2    O10   S    
C14   C15   A    
