data_str_m2_o4_o17_f0_pcu.sym.74
_audit_creation_date              2012-10-26T19:52:49-0400
_audit_creation_method            fapswitch 2.2
_symmetry_space_group_name_H-M    P1
_symmetry_Int_Tables_number       1
_space_group_crystal_system       triclinic
_cell_length_a                    15.055359
_cell_length_b                    10.765611
_cell_length_c                    9.585449
_cell_angle_alpha                 89.633035
_cell_angle_beta                  89.225162
_cell_angle_gamma                 91.425357
_cell_volume                      1552.95284767

loop_
_atom_site_label
_atom_site_type_symbol
_atom_type_description
_atom_site_fract_x
_atom_site_fract_y
_atom_site_fract_z
_atom_type_partial_charge
C1    C     C_R   0.502225 0.263014 0.500359 0.563275
C2    C     C_R   0.186065 0.467975 0.378650 -0.131986
C3    C     C_R   0.231792 0.499157 0.500644 0.022371
C4    C     C_R   0.328712 0.499426 0.500520 0.599263
C5    C     C_R   0.184843 0.532104 0.621403 -0.060101
C6    C     C_R   0.578642 0.064949 0.512895 -0.000804
C7    C     C_R   0.500583 0.130159 0.499755 0.022734
C8    C     C_R   0.421922 0.065797 0.465763 -0.078251
C9    C     C_R   0.419154 0.935400 0.464546 0.243793
C10   C     C_R   0.497405 0.870802 0.495340 0.022472
C11   C     C_R   0.577305 0.937603 0.507155 -0.032129
C12   C     C_R   0.906280 0.531158 0.621887 0.011821
C13   C     C_3   0.651818 0.926573 0.606977 -0.211654
C14   C     C_3   0.653378 0.068221 0.615048 0.094706
C15   C     C_R   0.565589 0.562314 0.071350 0.180667
C16   C     C_R   0.498807 0.737290 0.499311 0.612491
C17   C     C_R   0.441927 0.428434 0.079285 0.052273
C18   C     C_R   0.440832 0.425760 0.931695 0.382858
C19   C     C_R   0.564945 0.562779 0.924258 0.097086
C20   C     C_3   0.586515 0.698068 0.915366 -0.238159
C21   C     C_3   0.588039 0.698711 0.073987 0.143347
C22   C     C_R   0.671227 0.499666 0.499391 0.549470
C23   C     C_R   0.954871 0.438760 0.254880 -0.102595
C24   C     C_R   0.813821 0.530611 0.620860 -0.144341
C25   C     C_R   0.768053 0.499808 0.498839 -0.018333
C26   C     C_R   0.814897 0.469042 0.377075 -0.097854
C27   C     C_R   0.907465 0.469241 0.376267 0.017810
C28   C     C_R   0.953369 0.500215 0.499204 0.063708
C29   C     C_R   0.047487 0.438371 0.255307 -0.110381
C30   C     C_R   0.093580 0.468667 0.377074 0.018692
C31   C     C_R   0.046448 0.500101 0.499537 0.066071
C32   C     C_R   0.092329 0.531734 0.622247 0.015643
C33   C     C_R   0.044986 0.562759 0.743480 -0.111174
C34   C     C_R   0.952380 0.562217 0.743394 -0.115184
Cu1   Cu    Cu3+1 0.500000 0.499980 0.640670 1.113578
Cu2   Cu    Cu3+1 0.500000 0.500020 0.359330 1.055969
H1    H     H_    0.777581 0.555003 0.714939 0.146981
H2    H     H_    0.220337 0.560470 0.713824 0.196263
H3    H     H_    0.916826 0.586104 0.838185 0.151997
H4    H     H_    0.266809 0.722871 0.287685 0.365262
H5    H     H_    0.630613 0.878073 0.704577 0.168098
H6    H     H_    0.706701 0.289774 0.771807 0.330190
H7    H     H_    0.208068 0.343284 0.888476 0.366403
H8    H     H_    0.531210 0.752532 0.872662 0.148280
H9    H     H_    0.755266 0.755895 0.342199 0.356839
H10   H     H_    0.779352 0.443756 0.283432 0.177768
H11   H     H_    0.079562 0.586986 0.838331 0.142319
H12   H     H_    0.712433 0.889566 0.556535 0.133914
H13   H     H_    0.362372 0.117275 0.446271 0.170916
H14   H     H_    0.715299 0.112020 0.570881 0.102725
H15   H     H_    0.393647 0.374707 0.140613 0.167046
H16   H     H_    0.652162 0.715616 0.863611 0.165832
H17   H     H_    0.535133 0.755470 0.121777 0.156216
H18   H     H_    0.920332 0.415153 0.159808 0.140119
H19   H     H_    0.083054 0.414423 0.160551 0.134992
H20   H     H_    0.222363 0.442880 0.284895 0.145152
N1    N     N_R   0.500570 0.500930 0.147930 -0.299759
N2    N     N_R   0.500570 0.500890 0.852020 -0.249376
O1    O     O_R   0.500000 0.319640 0.618810 -0.388775
O2    O     O_2   0.244813 0.948066 0.407574 -0.255819
O3    O     O_3   0.326625 0.761640 0.298814 -0.507269
O4    O     O_2   0.528798 0.092425 0.819993 -0.194701
O5    O     O_2   0.681732 0.060186 0.892297 -0.231937
O6    O     O_3   0.642875 0.276825 0.795472 -0.481806
O7    O     O_2   0.352178 0.286806 0.723780 -0.243306
O8    O     O_2   0.347342 0.213416 0.962210 -0.256357
O9    O     O_3   0.256765 0.405420 0.902130 -0.593821
O10   O     O_2   0.759448 0.632458 0.097408 -0.325356
O11   O     O_2   0.730288 0.854890 0.079425 -0.216663
O12   O     O_R   0.500010 0.319680 0.381230 -0.526121
O13   O     O_3   0.692650 0.743634 0.313864 -0.528589
O14   O     O_R   0.370250 0.499950 0.618800 -0.446378
O15   O     O_R   0.370260 0.499990 0.381220 -0.517699
O16   O     O_R   0.499990 0.680320 0.618770 -0.525965
O17   O     O_R   0.500000 0.680360 0.381190 -0.447099
O18   O     O_R   0.629740 0.500010 0.618780 -0.510675
O19   O     O_R   0.629750 0.500050 0.381200 -0.462193
O20   O     O_2   0.291832 0.782149 0.564200 -0.297037
S1    S     S_3+6 0.316539 0.856929 0.436068 0.031906
S2    S     S_3+6 0.624800 0.122480 0.786469 0.033198
S3    S     S_3+6 0.350836 0.328490 0.872222 0.057730
S4    S     S_3+6 0.696947 0.732860 0.139276 0.019403

loop_
_geom_bond_atom_site_label_1
_geom_bond_atom_site_label_2
_ccdc_geom_bond_type
Cu1   O16   S    
H9    O13   S    
C16   O17   A    
O6    S2    S    
Cu1   Cu2   S    
C22   O18   A    
C17   H15   S    
C13   H5    S    
C7    C8    A    
O2    S1    D    
C15   C19   A    
C26   C27   A    
C12   C28   A    
Cu1   N2    S    
C16   O16   A    
C23   C29   A    
O4    S2    D    
Cu2   O19   S    
C1    O1    A    
C30   C31   A    
C18   S3    S    
Cu1   O1    S    
C9    S1    S    
O11   S4    D    
C18   N2    A    
C19   C20   S    
C8    C9    A    
C22   C25   S    
C23   C27   A    
C9    C10   A    
O13   S4    S    
C13   C14   S    
C15   N1    A    
C20   H8    S    
Cu2   O12   S    
C33   C34   A    
O5    S2    D    
C19   N2    A    
Cu1   O18   S    
C34   H3    S    
C24   C25   A    
C24   H1    S    
Cu2   N1    S    
Cu2   O15   S    
C6    C11   A    
O20   S1    D    
C29   H19   S    
C25   C26   A    
H4    O3    S    
C29   C30   A    
Cu2   O17   S    
C6    C14   S    
O7    S3    D    
C31   C32   A    
C17   C18   A    
C21   S4    S    
C4    O15   A    
Cu1   O14   S    
O9    S3    S    
C14   S2    S    
C33   H11   S    
C12   C34   A    
C3    C4    S    
H6    O6    S    
C4    O14   A    
C23   H18   S    
C1    C7    S    
C28   C31   A    
C22   O19   A    
C3    C5    A    
C13   H12   S    
C6    C7    A    
C12   C24   A    
C1    O12   A    
C2    C30   A    
O10   S4    D    
C32   C33   A    
C5    C32   A    
C2    C3    A    
C20   H16   S    
C2    H20   S    
O8    S3    D    
C21   H17   S    
C11   C13   S    
C14   H14   S    
O3    S1    S    
C10   C11   A    
C26   H10   S    
C15   C21   S    
C20   C21   S    
H7    O9    S    
C27   C28   A    
C10   C16   S    
C5    H2    S    
C8    H13   S    
C17   N1    A    
