data_str_m3_o4_o17_f0_pcu.sym.227
_audit_creation_date              2012-12-10T20:31:05-0500
_audit_creation_method            fapswitch 2.2
_symmetry_space_group_name_H-M    P1
_symmetry_Int_Tables_number       1
_space_group_crystal_system       triclinic
_cell_length_a                    14.891249
_cell_length_b                    10.782334
_cell_length_c                    9.955795
_cell_angle_alpha                 88.985493
_cell_angle_beta                  90.926204
_cell_angle_gamma                 92.569083
_cell_volume                      1596.48047036

loop_
_atom_site_label
_atom_site_type_symbol
_atom_type_description
_atom_site_fract_x
_atom_site_fract_y
_atom_site_fract_z
_atom_type_partial_charge
C1    C     C_R   0.492535 0.260510 0.500733 0.976761
C2    C     C_R   0.913311 0.631668 0.483274 0.005692
C3    C     C_R   0.944996 0.302028 0.591957 -0.135495
C4    C     C_R   0.038138 0.299233 0.595081 -0.168947
C5    C     C_R   0.089814 0.404615 0.555599 0.123244
C6    C     C_R   0.048397 0.515446 0.518000 0.106472
C7    C     C_R   0.100801 0.621845 0.479110 0.128658
C8    C     C_R   0.060805 0.734824 0.457735 -0.187228
C9    C     C_R   0.968194 0.740670 0.465230 -0.084020
C10   C     C_R   0.182485 0.401438 0.552372 -0.168874
C11   C     C_R   0.232270 0.503121 0.500488 -0.007408
C12   C     C_R   0.327321 0.499592 0.499507 0.934178
C13   C     C_R   0.192718 0.613630 0.465489 -0.212950
C14   C     C_R   0.515849 0.063332 0.609923 -0.027999
C15   C     C_R   0.480425 0.127769 0.501507 -0.254189
C16   C     C_R   0.444365 0.064180 0.388793 0.311286
C17   C     C_R   0.463313 0.938405 0.373045 0.247558
C18   C     C_R   0.497023 0.873096 0.488864 -0.182669
C19   C     C_R   0.524380 0.937702 0.603455 0.000124
C20   C     C_3   0.496675 0.914387 0.745602 -0.441290
C21   C     C_3   0.479971 0.051783 0.750500 0.728330
C22   C     C_R   0.427089 0.534675 0.068252 0.256457
C23   C     C_R   0.498539 0.739976 0.497298 0.993537
C24   C     C_R   0.575991 0.481978 0.076117 -0.102636
C25   C     C_R   0.578955 0.496489 0.934379 0.489359
C26   C     C_R   0.427387 0.538400 0.927214 0.084863
C27   C     C_3   0.329935 0.497876 0.920023 0.234184
C28   C     C_3   0.332474 0.484639 0.073400 -0.475875
C29   C     C_R   0.672898 0.510437 0.500395 0.972769
C30   C     C_R   0.818944 0.630524 0.467701 0.300049
C31   C     C_R   0.769259 0.519301 0.502149 -0.170808
C32   C     C_R   0.811019 0.412361 0.544625 -0.194482
C33   C     C_R   0.903399 0.410922 0.551816 0.116005
C34   C     C_R   0.954856 0.519582 0.518204 0.011095
H1    H     H_    0.435056 0.853476 0.755214 0.261350
H2    H     H_    0.316622 0.409213 0.867179 0.174775
H3    H     H_    0.288576 0.546001 0.128626 0.261131
H4    H     H_    0.770790 0.329089 0.570688 0.184427
H5    H     H_    0.069644 0.214169 0.625110 0.161310
H6    H     H_    0.101194 0.818914 0.436812 0.177110
H7    H     H_    0.941458 0.831721 0.458181 0.217302
N1    N     N_R   0.499390 0.499140 0.142800 -0.115039
N2    N     N_R   0.499390 0.499180 0.857150 -0.162636
O1    O     O_R   0.500010 0.316790 0.614690 -0.563207
O2    O     O_R   0.500000 0.316760 0.385350 -0.579229
O3    O     O_R   0.367850 0.499990 0.614680 -0.588878
O4    O     O_R   0.367840 0.499950 0.385340 -0.598064
O5    O     O_R   0.500000 0.683240 0.614650 -0.594787
O6    O     O_R   0.499990 0.683210 0.385310 -0.522503
O7    O     O_R   0.632160 0.500050 0.614660 -0.529783
O8    O     O_R   0.632150 0.500010 0.385320 -0.633527
Zn1   Zn    Zn3+2 0.500010 0.500020 0.653130 1.119712
Zn2   Zn    Zn3+2 0.499990 0.499980 0.346870 1.092207
S1    S     S_3+6 0.764773 0.764382 0.401864 0.018928
O9    O     O_2   0.741830 0.845678 0.516232 -0.286269
O10   O     O_2   0.823620 0.838533 0.305680 -0.277434
O11   O     O_3   0.670704 0.725330 0.316694 -0.517756
H8    H     H_    0.691381 0.690240 0.231942 0.394427
S2    S     S_3+6 0.441394 0.865852 0.213010 0.133174
O12   O     O_2   0.363294 0.773682 0.227352 -0.266730
O13   O     O_2   0.419695 0.956235 0.102734 -0.130101
O14   O     O_3   0.531057 0.792104 0.160701 -0.510614
H9    H     H_    0.578122 0.858579 0.146450 0.400165
H10   H     H_    0.554135 0.883469 0.808311 0.251722
S3    S     S_3+6 0.361471 0.081244 0.758907 0.046267
O15   O     O_2   0.325163 0.041396 0.893353 -0.151017
O16   O     O_2   0.347221 0.217005 0.736919 -0.349637
O17   O     O_3   0.305046 0.000751 0.638713 -0.635165
H11   H     H_    0.241773 0.024093 0.646264 0.375094
S4    S     S_3+6 0.549771 0.135651 0.870454 0.086462
O18   O     O_2   0.498049 0.237012 0.929676 -0.260471
O19   O     O_2   0.579563 0.050221 0.981685 -0.296859
O20   O     O_3   0.641134 0.198647 0.793637 -0.558374
H12   H     H_    0.686051 0.213606 0.866658 0.400812
H13   H     H_    0.636883 0.468489 0.133965 0.186577
S5    S     S_3+6 0.685623 0.555151 0.879538 0.052185
O21   O     O_2   0.741012 0.601578 0.997496 -0.315053
O22   O     O_2   0.735283 0.453495 0.816604 -0.293855
O23   O     O_3   0.673918 0.676173 0.772670 -0.523643
H14   H     H_    0.736154 0.705707 0.751800 0.395748
S6    S     S_3+6 0.259635 0.621545 0.864485 0.070732
O24   O     O_2   0.168074 0.566545 0.828594 -0.283002
O25   O     O_2   0.250629 0.714786 0.973467 -0.197840
O26   O     O_3   0.303151 0.696448 0.729693 -0.559576
H15   H     H_    0.258254 0.757707 0.703213 0.393224
H16   H     H_    0.326941 0.386739 0.108412 0.251608
H17   H     H_    0.905473 0.218911 0.619704 0.174412
H18   H     H_    0.215723 0.320220 0.589370 0.164483
H19   H     H_    0.234010 0.693898 0.433309 0.174337
S7    S     S_3+6 0.359071 0.134309 0.289928 0.110170
O27   O     O_2   0.400946 0.195552 0.168315 -0.192999
O28   O     O_2   0.287506 0.039933 0.246394 -0.208368
O29   O     O_3   0.309192 0.241159 0.378909 -0.588870
H20   H     H_    0.273129 0.191352 0.444648 0.355681

loop_
_geom_bond_atom_site_label_1
_geom_bond_atom_site_label_2
_ccdc_geom_bond_type
C8    C9    A    
C24   C25   A    
C16   S7    S    
O29   H20   S    
C24   N1    A    
O20   H12   S    
C19   C20   S    
S5    O23   S    
C1    O2    A    
C25   N2    A    
S6    O24   D    
O11   H8    S    
C7    C8    A    
C30   S1    S    
C10   H18   S    
C26   C27   S    
C5    C6    A    
C14   C21   S    
S5    O22   D    
N1    Zn2   S    
C30   C31   A    
N2    Zn1   S    
C23   O6    A    
C3    C33   A    
C15   C16   A    
O3    Zn1   S    
C18   C19   A    
C20   H1    S    
C16   C17   A    
S3    O16   D    
O7    Zn1   S    
S4    O18   D    
C1    C15   S    
C32   H4    S    
O4    Zn2   S    
C21   S3    S    
O1    Zn1   S    
O2    Zn2   S    
S2    O12   D    
C22   C28   S    
C12   O4    A    
S6    O25   D    
C26   N2    A    
C33   C34   A    
C29   O7    A    
S1    O10   D    
S2    O13   D    
C3    H17   S    
C18   C23   S    
C27   S6    S    
O26   H15   S    
C12   O3    A    
O17   H11   S    
C6    C34   A    
O8    Zn2   S    
C20   H10   S    
O14   H9    S    
C1    O1    A    
S7    O28   D    
C31   C32   A    
C4    H5    S    
C7    C13   A    
S3    O17   S    
S4    O20   S    
C17   C18   A    
S5    O21   D    
C17   S2    S    
C28   H16   S    
C3    C4    A    
S6    O26   S    
S7    O29   S    
C29   O8    A    
S1    O9    D    
S2    O14   S    
C23   O5    A    
C13   H19   S    
C14   C19   A    
C4    C5    A    
C11   C12   S    
C24   H13   S    
C6    C7    A    
C27   H2    S    
C9    H7    S    
C21   S4    S    
C2    C30   A    
C25   S5    S    
C32   C33   A    
C5    C10   A    
C29   C31   S    
C11   C13   A    
C2    C34   A    
S7    O27   D    
C22   N1    A    
C28   H3    S    
O6    Zn2   S    
C10   C11   A    
O23   H14   S    
O5    Zn1   S    
C20   C21   S    
S3    O15   D    
C22   C26   A    
C27   C28   S    
C14   C15   A    
S4    O19   D    
C8    H6    S    
C2    C9    A    
S1    O11   S    
