data_str_m9_o5_o16_f0_sra.sym.20
_audit_creation_date              2013-03-05T16:09:06-0500
_audit_creation_method            fapswitch 2.2
_symmetry_space_group_name_H-M    P1
_symmetry_Int_Tables_number       1
_space_group_crystal_system       triclinic
_cell_length_a                    18.202643
_cell_length_b                    7.094726
_cell_length_c                    13.088397
_cell_angle_alpha                 90.760785
_cell_angle_beta                  71.867844
_cell_angle_gamma                 89.837632
_cell_volume                      1606.15017782

loop_
_atom_site_label
_atom_site_type_symbol
_atom_site_description
_atom_site_fract_x
_atom_site_fract_y
_atom_site_fract_z
_atom_type_partial_charge
O1    O     O_R   0.453880 0.506200 0.150010 -0.583137
O2    O     O_R   0.546120 0.006200 0.849990 -0.585792
O3    O     O_R   0.604080 0.177770 0.007280 -0.594450
O4    O     O_R   0.395920 0.677770 0.992720 -0.591003
C1    C     C_R   0.636099 0.344288 0.001131 1.023612
C2    C     C_R   0.363846 0.844604 0.999063 1.028750
O5    O     O_R   0.458010 0.176640 0.159130 -0.604158
O6    O     O_R   0.541990 0.676640 0.840870 -0.605670
O7    O     O_R   0.399010 0.004010 0.002930 -0.583602
O8    O     O_R   0.600990 0.504010 0.997070 -0.578431
C3    C     C_R   0.444153 0.346896 0.201440 1.032832
C4    C     C_R   0.556356 0.844043 0.798368 1.036386
O9    O     O_3   0.480810 0.338440 0.948570 -0.280455
O10   O     O_3   0.519190 0.838440 0.051430 -0.277454
V1    V     V_3+5 0.503560 0.064490 0.009540 1.233974
V2    V     V_3+5 0.496440 0.564490 0.990460 1.236006
C5    C     C_R   0.576517 0.814217 0.503030 -0.163342
C6    C     C_R   0.422762 0.420753 0.494800 -0.149025
H1    H     H_    0.652569 0.817579 0.297532 0.187657
H2    H     H_    0.346913 0.430581 0.700327 0.177728
H3    H     H_    0.541284 0.809431 0.449807 0.172346
H4    H     H_    0.458219 0.441072 0.546982 0.165265
C7    C     C_R   0.588194 0.847517 0.681168 -0.253962
C8    C     C_R   0.411782 0.363303 0.318117 -0.261717
C9    C     C_R   0.948673 0.872321 0.385926 0.251528
C10   C     C_R   0.051568 0.325911 0.615540 0.253728
C11   C     C_R   0.917822 0.824603 0.493710 -0.157609
C12   C     C_R   0.081891 0.357170 0.505626 -0.157275
C13   C     C_R   0.839811 0.778844 0.537986 0.272481
C14   C     C_R   0.159336 0.405944 0.458848 0.270661
C15   C     C_R   0.787694 0.810710 0.477859 0.044792
C16   C     C_R   0.211843 0.392645 0.520150 0.045440
C17   C     C_R   0.819669 0.840171 0.364518 -0.168839
C18   C     C_R   0.180179 0.378231 0.634655 -0.171624
C19   C     C_R   0.705256 0.817035 0.525580 0.132027
C20   C     C_R   0.294319 0.391440 0.472779 0.127808
C21   C     C_R   0.657318 0.809165 0.458950 0.070261
C22   C     C_R   0.342015 0.416000 0.539014 0.072712
C23   C     C_R   0.689813 0.813794 0.348093 -0.146851
C24   C     C_R   0.309652 0.421793 0.649854 -0.147346
C25   C     C_R   0.768454 0.844600 0.301390 0.316888
C26   C     C_R   0.231386 0.388493 0.697761 0.315948
C27   C     C_R   0.668777 0.847336 0.636584 -0.285871
C28   C     C_R   0.331484 0.350965 0.363041 -0.280058
C29   C     C_R   0.540688 0.834578 0.614054 0.308131
C30   C     C_R   0.458506 0.400093 0.384102 0.316248
C31   C     C_R   0.901397 0.864590 0.318754 -0.189468
C32   C     C_R   0.098668 0.353713 0.681727 -0.188364
H5    H     H_    0.701842 0.877486 0.690284 0.151990
H6    H     H_    0.299386 0.303875 0.310929 0.152276
H7    H     H_    0.955985 0.811652 0.542539 0.151512
H8    H     H_    0.043621 0.354679 0.456531 0.150636
C33   C     C_1   0.215977 0.858296 0.001771 -0.108374
C34   C     C_1   0.783983 0.359157 0.998353 -0.111030
C35   C     C_1   0.283329 0.852636 0.000419 -0.165210
C36   C     C_1   0.716628 0.352427 0.999774 -0.165952
O11   O     O_R   0.899030 0.205490 0.002790 -0.550351
O12   O     O_R   0.100970 0.705490 0.997210 -0.569623
O13   O     O_R   0.042000 0.536370 0.840840 -0.605447
O14   O     O_R   0.958000 0.036370 0.159160 -0.582311
C37   C     C_R   0.060655 0.366912 0.798857 1.006190
C38   C     C_R   0.939469 0.869979 0.201402 1.010629
O15   O     O_R   0.895930 0.535070 0.992690 -0.574679
O16   O     O_R   0.104070 0.035070 0.007310 -0.557860
O17   O     O_R   0.953870 0.707520 0.150040 -0.600349
O18   O     O_R   0.046130 0.207520 0.849960 -0.576651
C39   C     C_R   0.864374 0.366922 0.997714 1.001622
C40   C     C_R   0.135616 0.866419 0.002371 1.003690
O19   O     O_3   0.019200 0.374340 0.051340 -0.280317
O20   O     O_3   0.980800 0.874340 0.948660 -0.280393
V3    V     V_3+5 0.996440 0.648350 0.990470 1.248471
V4    V     V_3+5 0.003560 0.148350 0.009530 1.271462
N1    N     N_R   0.457368 0.851459 0.655360 0.222636
O21   O     O_R   0.415599 0.824001 0.591961 -0.419049
O22   O     O_R   0.423165 0.917690 0.751639 -0.421963
N2    N     N_R   0.541582 0.409176 0.341649 0.217202
O23   O     O_R   0.583980 0.363274 0.401408 -0.405896
O24   O     O_R   0.575235 0.479063 0.247386 -0.433542
C41   C     C_3   0.033315 0.920950 0.342181 -1.046137
H9    H     H_    0.062286 0.916654 0.405353 0.263721
H10   H     H_    0.063439 0.820222 0.276872 0.229150
H11   H     H_    0.039459 0.065699 0.309492 0.260276
C42   C     C_3   0.967779 0.271305 0.662040 -1.045146
H12   H     H_    0.938899 0.257749 0.599001 0.261690
H13   H     H_    0.963904 0.132978 0.702011 0.262851
H14   H     H_    0.936101 0.378659 0.722212 0.229368
C43   C     C_3   0.819113 0.670099 0.641365 -1.046045
H15   H     H_    0.864654 0.563552 0.636729 0.262212
H16   H     H_    0.815461 0.766378 0.710380 0.254561
H17   H     H_    0.765013 0.588887 0.655070 0.264816
C44   C     C_3   0.178688 0.496744 0.350000 -1.043333
H18   H     H_    0.131029 0.592748 0.347951 0.261141
H19   H     H_    0.230781 0.586527 0.332954 0.263556
H20   H     H_    0.185234 0.387631 0.286116 0.254609
N3    N     N_R   0.791510 0.913282 0.194392 0.218159
O25   O     O_R   0.793656 0.094882 0.182770 -0.401864
O26   O     O_R   0.783202 0.806722 0.117175 -0.395791
N4    N     N_R   0.208958 0.332796 0.807297 0.221122
O27   O     O_R   0.207356 0.153257 0.825932 -0.391206
O28   O     O_R   0.218086 0.449579 0.879737 -0.404739

loop_
_geom_bond_atom_site_label_1
_geom_bond_atom_site_label_2
_geom_bond_distance
_ccdc_geom_bond_type
C14   C16   1.430012 A    
C43   H15   1.107336 S    
C10   C42   1.509469 S    
C7    C29   1.413817 A    
C11   C13   1.397508 A    
N1    O21   1.301451 A    
C1    C36   1.461723 S    
N3    O25   1.298631 A    
O1    C3    1.307293 A    
C2    C35   1.461139 S    
O2    C4    1.309413 A    
C2    O7    1.309214 A    
C30   N2    1.441588 S    
C23   C25   1.389684 A    
O5    C3    1.312599 A    
C4    C7    1.461950 S    
C16   C20   1.434850 A    
C29   N1    1.446988 S    
C19   C21   1.413403 A    
C5    C29   1.400646 A    
C26   N4    1.424719 S    
H2    C24   1.085513 S    
O12   V3    1.974936 S    
O14   V4    2.046581 S    
C3    C8    1.458647 S    
C7    C27   1.399749 A    
O14   C38   1.310172 A    
O19   V3    2.197179 S    
C33   C40   1.461339 S    
C37   O18   1.306823 A    
O18   V4    2.038724 S    
C18   C26   1.426300 A    
C15   C17   1.433388 A    
O20   V3    1.751820 S    
C19   C27   1.410103 A    
C9    C31   1.409386 A    
C10   C32   1.408229 A    
C31   C38   1.476505 S    
O5    V1    2.024446 S    
O6    V2    2.046608 S    
C6    H4    1.084469 S    
N1    O22   1.300258 A    
O11   C39   1.318381 A    
C6    C30   1.396810 A    
C11   H7    1.084891 S    
C34   C36   1.221465 T    
C33   C35   1.221118 T    
O15   C39   1.319043 A    
O13   C37   1.314034 A    
N2    O23   1.301723 A    
O4    C2    1.308461 A    
C44   H18   1.108527 S    
C41   H10   1.109899 S    
C27   H5    1.077977 S    
C34   C39   1.461948 S    
O17   V3    2.026364 S    
C5    H3    1.084111 S    
C16   C18   1.433684 A    
O4    V2    1.987977 S    
O19   V4    1.739956 S    
C44   H19   1.109139 S    
C42   H12   1.111085 S    
O6    C4    1.310406 A    
O1    V2    2.037107 S    
C5    C21   1.402986 A    
O2    V1    2.024922 S    
H1    C23   1.085302 S    
O12   C40   1.316967 A    
C42   H13   1.110337 S    
O15   V3    1.992455 S    
N4    O28   1.300382 A    
C43   H16   1.110377 S    
C17   C31   1.432329 A    
C15   C19   1.435048 A    
C20   C28   1.409330 A    
C18   C32   1.430589 A    
C20   C22   1.414559 A    
O16   C40   1.317780 A    
O3    V1    1.992482 S    
C28   H6    1.077629 S    
C38   O17   1.310398 A    
C9    C41   1.509910 S    
N2    O24   1.300313 A    
C14   C44   1.510628 S    
O3    C1    1.311143 A    
C41   H11   1.110285 S    
N3    O26   1.300505 A    
O9    V2    1.740669 S    
C9    C11   1.393124 A    
C10   C12   1.392245 A    
C8    C30   1.410596 A    
C12   C14   1.397520 A    
C6    C22   1.402766 A    
C17   C25   1.425729 A    
C1    O8    1.309192 A    
C21   C23   1.386846 A    
O8    V2    1.977923 S    
C44   H20   1.110345 S    
C22   C24   1.385516 A    
C12   H8    1.084838 S    
C32   C37   1.474222 S    
C25   N3    1.424169 S    
C8    C28   1.398913 A    
C24   C26   1.388681 A    
O16   V4    1.987954 S    
O11   V4    1.973202 S    
O7    V1    1.979761 S    
C13   C43   1.509980 S    
C41   H9    1.111122 S    
C42   H14   1.109851 S    
C13   C15   1.427794 A    
N4    O27   1.298805 A    
C43   H17   1.109020 S    
O10   V1    1.752557 S    
O20   V4    2.180475 S    
O13   V3    2.024446 S    
