data_str_m4_o17_o17_f0_acs.sym.135
_audit_creation_date              2012-12-11T14:30:02-0500
_audit_creation_method            fapswitch 2.2
_symmetry_space_group_name_H-M    P1
_symmetry_Int_Tables_number       1
_space_group_crystal_system       triclinic
_cell_length_a                    12.633234
_cell_length_b                    12.633241
_cell_length_c                    27.090295
_cell_angle_alpha                 90.000133
_cell_angle_beta                  90.000093
_cell_angle_gamma                 119.991925
_cell_volume                      3744.63092811

loop_
_atom_site_label
_atom_site_type_symbol
_atom_type_description
_atom_site_fract_x
_atom_site_fract_y
_atom_site_fract_z
_atom_type_partial_charge
C1    C     C_R   0.558368 0.456440 0.822344 0.560412
C2    C     C_R   0.898033 0.441596 0.677640 0.560398
C3    C     C_R   0.543553 0.101869 0.822328 0.560609
C4    C     C_R   0.558369 0.456440 0.677655 0.560410
C5    C     C_R   0.898036 0.441599 0.822359 0.560400
C6    C     C_R   0.543553 0.101871 0.677671 0.560607
C7    C     C_R   0.456439 0.558372 0.322346 0.560396
C8    C     C_R   0.441592 0.898029 0.177638 0.560379
C9    C     C_R   0.101874 0.543554 0.322330 0.560592
C10   C     C_R   0.456438 0.558374 0.177653 0.560396
C11   C     C_R   0.441595 0.898031 0.322361 0.560380
C12   C     C_R   0.101877 0.543554 0.177669 0.560589
C13   C     C_R   0.993414 0.497945 0.974243 0.010939
C14   C     C_R   0.504181 0.005754 0.525901 0.010937
C15   C     C_R   0.501812 0.495642 0.974171 0.010920
C16   C     C_R   0.993386 0.497929 0.525752 0.010937
C17   C     C_R   0.504173 0.005735 0.974096 0.010938
C18   C     C_R   0.501823 0.495634 0.525826 0.010918
C19   C     C_R   0.497916 0.993362 0.474252 0.010936
C20   C     C_R   0.005806 0.504203 0.025892 0.010936
C21   C     C_R   0.495621 0.501840 0.474179 0.010918
C22   C     C_R   0.497905 0.993343 0.025745 0.010935
C23   C     C_R   0.005779 0.504191 0.474103 0.010937
C24   C     C_R   0.495613 0.501851 0.025818 0.010917
C25   C     C_R   0.990955 0.689193 0.974405 -0.106569
C26   C     C_R   0.698714 0.009917 0.525562 -0.106522
C27   C     C_R   0.311039 0.301539 0.974422 -0.106313
C28   C     C_R   0.990987 0.689207 0.525596 -0.106566
C29   C     C_R   0.698729 0.009945 0.974440 -0.106523
C30   C     C_R   0.311026 0.301553 0.525578 -0.106309
C31   C     C_R   0.689228 0.991029 0.474402 -0.106563
C32   C     C_R   0.009843 0.698675 0.025565 -0.106517
C33   C     C_R   0.301565 0.311016 0.474420 -0.106306
C34   C     C_R   0.689240 0.991056 0.025599 -0.106558
C35   C     C_R   0.009876 0.698692 0.474437 -0.106520
C36   C     C_R   0.301580 0.311003 0.025580 -0.106304
C37   C     C_R   0.960093 0.576091 0.897376 -0.173691
C38   C     C_R   0.616266 0.040156 0.602657 -0.173820
C39   C     C_R   0.423920 0.383880 0.897360 -0.174110
C40   C     C_R   0.960100 0.576090 0.602623 -0.173687
C41   C     C_R   0.616273 0.040165 0.897343 -0.173825
C42   C     C_R   0.423919 0.383886 0.602639 -0.174111
C43   C     C_R   0.576094 0.960114 0.397378 -0.173686
C44   C     C_R   0.040136 0.616247 0.102655 -0.173814
C45   C     C_R   0.383892 0.423922 0.397362 -0.174110
C46   C     C_R   0.576093 0.960121 0.102622 -0.173685
C47   C     C_R   0.040146 0.616256 0.397344 -0.173818
C48   C     C_R   0.383898 0.423921 0.102637 -0.174106
C49   C     C_R   0.046529 0.522358 0.128077 0.000122
C50   C     C_R   0.475413 0.953026 0.372032 0.000091
C51   C     C_R   0.477620 0.524397 0.128020 0.000136
C52   C     C_R   0.046515 0.522357 0.371919 0.000128
C53   C     C_R   0.475403 0.953014 0.127966 0.000085
C54   C     C_R   0.477622 0.524388 0.371978 0.000142
C55   C     C_R   0.522354 0.046500 0.628084 0.000136
C56   C     C_R   0.953052 0.475438 0.872025 0.000107
C57   C     C_R   0.524374 0.477624 0.628026 0.000152
C58   C     C_R   0.522355 0.046491 0.871914 0.000143
C59   C     C_R   0.953036 0.475423 0.627971 0.000100
C60   C     C_R   0.524366 0.477626 0.871972 0.000157
C61   C     C_R   0.983021 0.589295 0.948378 0.006161
C62   C     C_R   0.606409 0.017055 0.551671 0.006122
C63   C     C_R   0.410695 0.393666 0.948353 0.005976
C64   C     C_R   0.983024 0.589293 0.551621 0.006161
C65   C     C_R   0.606414 0.017060 0.948328 0.006120
C66   C     C_R   0.410694 0.393670 0.551646 0.005975
C67   C     C_R   0.589296 0.983034 0.448380 0.006162
C68   C     C_R   0.017044 0.606397 0.051669 0.006123
C69   C     C_R   0.393672 0.410699 0.448356 0.005976
C70   C     C_R   0.589295 0.983037 0.051619 0.006162
C71   C     C_R   0.017048 0.606402 0.448330 0.006123
C72   C     C_R   0.393675 0.410698 0.051643 0.005977
C73   C     C_R   0.977812 0.392745 0.897553 0.366805
C74   C     C_R   0.414468 0.020679 0.602684 0.366980
C75   C     C_R   0.606742 0.585269 0.897439 0.367005
C76   C     C_R   0.977761 0.392710 0.602439 0.366801
C77   C     C_R   0.414458 0.020645 0.897310 0.366982
C78   C     C_R   0.606765 0.585256 0.602556 0.367005
C79   C     C_R   0.392680 0.977717 0.397567 0.366797
C80   C     C_R   0.020778 0.414500 0.102669 0.366972
C81   C     C_R   0.585242 0.606796 0.397451 0.367000
C82   C     C_R   0.392655 0.977679 0.102427 0.366795
C83   C     C_R   0.020731 0.414485 0.397323 0.366974
C84   C     C_R   0.585230 0.606819 0.102544 0.366998
C85   C     C_R   0.990803 0.399589 0.948600 0.032312
C86   C     C_R   0.408109 0.007527 0.551640 0.032223
C87   C     C_R   0.599907 0.591530 0.948482 0.032247
C88   C     C_R   0.990747 0.399556 0.551392 0.032314
C89   C     C_R   0.408093 0.007488 0.948355 0.032221
C90   C     C_R   0.599930 0.591513 0.551513 0.032249
C91   C     C_R   0.399526 0.990695 0.448615 0.032316
C92   C     C_R   0.007637 0.408154 0.051625 0.032229
C93   C     C_R   0.591491 0.599962 0.448494 0.032251
C94   C     C_R   0.399501 0.990654 0.051380 0.032317
C95   C     C_R   0.007583 0.408132 0.448367 0.032227
C96   C     C_R   0.591474 0.599985 0.051501 0.032253
C97   C     C_R   0.001502 0.309193 0.025724 -0.125127
C98   C     C_R   0.306314 0.995922 0.474608 -0.125113
C99   C     C_R   0.690160 0.692987 0.025554 -0.124939
C100  C     C_R   0.001417 0.309153 0.474266 -0.125127
C101  C     C_R   0.306280 0.995858 0.025385 -0.125110
C102  C     C_R   0.690190 0.692954 0.474439 -0.124939
C103  C     C_R   0.309113 0.001330 0.525744 -0.125127
C104  C     C_R   0.996092 0.306404 0.974587 -0.125118
C105  C     C_R   0.692912 0.690226 0.525572 -0.124940
C106  C     C_R   0.309084 0.001268 0.974248 -0.125127
C107  C     C_R   0.996007 0.306359 0.525402 -0.125116
C108  C     C_R   0.692878 0.690257 0.974422 -0.124942
Cr1   Cr    Cr6+3 0.487630 0.241180 0.750000 1.116323
Cr2   Cr    Cr6+3 0.753550 0.512370 0.750000 1.116689
Cr3   Cr    Cr6+3 0.758820 0.246450 0.750000 1.116616
Cr4   Cr    Cr6+3 0.241180 0.487630 0.250000 1.116322
Cr5   Cr    Cr6+3 0.512370 0.753550 0.250000 1.116687
Cr6   Cr    Cr6+3 0.246450 0.758820 0.250000 1.116617
H1    H     H_    0.003832 0.234974 0.044769 0.170104
H2    H     H_    0.229374 0.992940 0.455632 0.169884
H3    H     H_    0.764228 0.769728 0.044563 0.170212
H4    H     H_    0.003727 0.234927 0.455218 0.170108
H5    H     H_    0.229330 0.992860 0.044358 0.169882
H6    H     H_    0.764265 0.769685 0.455429 0.170215
H7    H     H_    0.234876 0.003616 0.544794 0.170116
H8    H     H_    0.993154 0.229490 0.955608 0.169892
H9    H     H_    0.769632 0.764309 0.544584 0.170220
H10   H     H_    0.234841 0.003538 0.955196 0.170119
H11   H     H_    0.993048 0.229432 0.544379 0.169887
H12   H     H_    0.769589 0.764346 0.955408 0.170221
O1    O     O_R   0.460870 0.120930 0.805240 -0.421969
O2    O     O_R   0.660060 0.539130 0.694760 -0.421819
O3    O     O_R   0.879070 0.339940 0.805240 -0.421928
O4    O     O_R   0.460870 0.120930 0.694760 -0.421962
O5    O     O_R   0.660060 0.539130 0.805240 -0.421828
O6    O     O_R   0.879070 0.339940 0.694760 -0.421919
O7    O     O_R   0.120930 0.460870 0.305240 -0.421965
O8    O     O_R   0.539130 0.660060 0.194760 -0.421816
O9    O     O_R   0.339940 0.879070 0.305240 -0.421923
O10   O     O_R   0.120930 0.460870 0.194760 -0.421955
O11   O     O_R   0.539130 0.660060 0.305240 -0.421824
O12   O     O_R   0.339940 0.879070 0.194760 -0.421915
O13   O     O_R   0.498910 0.350470 0.801870 -0.511203
O14   O     O_R   0.851560 0.501090 0.698130 -0.510890
O15   O     O_R   0.649530 0.148440 0.801870 -0.510965
O16   O     O_R   0.498910 0.350470 0.698130 -0.511194
O17   O     O_R   0.851560 0.501090 0.801870 -0.510899
O18   O     O_R   0.649530 0.148440 0.698130 -0.510953
O19   O     O_R   0.350470 0.498910 0.301870 -0.511187
O20   O     O_R   0.501090 0.851560 0.198130 -0.510873
O21   O     O_R   0.148440 0.649530 0.301870 -0.510946
O22   O     O_R   0.350470 0.498910 0.198130 -0.511175
O23   O     O_R   0.501090 0.851560 0.301870 -0.510882
O24   O     O_R   0.148440 0.649530 0.198130 -0.510936
O25   O     O_3   0.666667 0.333333 0.750000 -0.296551
O26   O     O_3   0.333333 0.666667 0.250000 -0.296548
H13   H     H_    0.058229 0.698783 0.121981 0.179749
H14   H     H_    0.640961 0.942789 0.377967 0.179206
H15   H     H_    0.301553 0.359269 0.122008 0.178874
H16   H     H_    0.058264 0.698803 0.378021 0.179742
H17   H     H_    0.640971 0.942814 0.122035 0.179212
H18   H     H_    0.301539 0.359280 0.377993 0.178861
H19   H     H_    0.698824 0.058302 0.621977 0.179736
H20   H     H_    0.942718 0.640931 0.877971 0.179196
H21   H     H_    0.359290 0.301523 0.622006 0.178850
H22   H     H_    0.698840 0.058329 0.878025 0.179722
H23   H     H_    0.942750 0.640943 0.622031 0.179202
H24   H     H_    0.359301 0.301509 0.877995 0.178844
H25   H     H_    0.017969 0.777671 0.044740 0.125492
H26   H     H_    0.760412 0.983580 0.455162 0.125518
H27   H     H_    0.222763 0.239997 0.044786 0.125719
H28   H     H_    0.018026 0.777702 0.455265 0.125484
H29   H     H_    0.760433 0.983626 0.044841 0.125526
H30   H     H_    0.222738 0.240020 0.455215 0.125714
H31   H     H_    0.777738 0.018094 0.544732 0.125479
H32   H     H_    0.983455 0.760353 0.955170 0.125503
H33   H     H_    0.240040 0.222714 0.544781 0.125707
H34   H     H_    0.777763 0.018142 0.955272 0.125472
H35   H     H_    0.983511 0.760378 0.544834 0.125510
H36   H     H_    0.240062 0.222689 0.955220 0.125700
F1    F     F_    0.017018 0.318193 0.126831 -0.622088
F2    F     F_    0.299531 0.980623 0.373529 -0.622499
F3    F     F_    0.681375 0.699692 0.126637 -0.622173
F4    F     F_    0.016944 0.318170 0.373157 -0.622080
F5    F     F_    0.299490 0.980565 0.126463 -0.622503
F6    F     F_    0.681393 0.699656 0.373356 -0.622168
F7    F     F_    0.318145 0.016867 0.626853 -0.622063
F8    F     F_    0.980768 0.299630 0.873507 -0.622479
F9    F     F_    0.699609 0.681413 0.626655 -0.622153
F10   F     F_    0.318129 0.016815 0.873139 -0.622058
F11   F     F_    0.980691 0.299577 0.626481 -0.622486
F12   F     F_    0.699573 0.681431 0.873338 -0.622150

loop_
_geom_bond_atom_site_label_1
_geom_bond_atom_site_label_2
_ccdc_geom_bond_type
C44   C49   A    
C80   C92   A    
C82   C94   A    
C84   F3    S    
C18   C21   A    
C5    C56   S    
C75   F12   S    
C3    O15   A    
Cr6   O26   S    
Cr4   O7    S    
C6    O4    A    
C50   C79   A    
C12   C49   S    
C42   H21   S    
C78   C90   A    
C31   C67   A    
C99   C108  A    
C20   C92   A    
C82   F5    S    
C77   C89   A    
C83   F4    S    
C44   H13   S    
C37   H20   S    
Cr1   O25   S    
C48   C72   A    
C41   C58   A    
C11   O9    A    
C24   C96   A    
C4    O16   A    
C3    O1    A    
C5    O17   A    
C104  H8    S    
C47   H16   S    
C86   C103  A    
C98   C103  A    
C14   C62   A    
C96   C99   A    
Cr4   O19   S    
C105  H9    S    
C102  C105  A    
C8    O12   A    
C84   C96   A    
C58   C77   A    
C37   C56   A    
Cr1   O1    S    
C48   C51   A    
C38   C55   A    
C28   C35   A    
C34   H29   S    
C89   C106  A    
C2    O6    A    
Cr6   O9    S    
Cr4   O26   S    
C19   C67   A    
Cr1   O16   S    
C38   C62   A    
C97   H1    S    
C43   H14   S    
C76   C88   A    
C30   H33   S    
C79   C91   A    
C1    O13   A    
C33   C69   A    
C32   C68   A    
C25   C32   A    
C5    O3    A    
C35   C71   A    
C26   C31   A    
C40   C59   A    
C41   H22   S    
C77   F10   S    
C22   C94   A    
Cr5   O26   S    
C26   H31   S    
C9    C52   S    
C81   F6    S    
Cr4   O10   S    
C6    C55   S    
C10   C51   S    
C14   C19   A    
C42   C57   A    
Cr3   O3    S    
C92   C97   A    
C16   C88   A    
C87   C108  A    
C45   C69   A    
C101  H5    S    
C12   O24   A    
C17   C89   A    
C14   C86   A    
C40   H23   S    
Cr2   O25   S    
C1    C60   S    
C7    O11   A    
C73   F8    S    
C4    O2    A    
C2    C59   S    
C41   C65   A    
C74   F7    S    
C46   H17   S    
C29   C34   A    
C9    O21   A    
C36   H27   S    
Cr4   O22   S    
C21   C69   A    
C53   C82   A    
C18   C90   A    
Cr5   O20   S    
C27   H36   S    
C52   C83   A    
C43   C67   A    
C20   C68   A    
Cr5   O23   S    
C99   H3    S    
C81   C93   A    
C98   H2    S    
C31   H26   S    
C38   H19   S    
C83   C95   A    
C35   H28   S    
C79   F2    S    
Cr2   O5    S    
C43   C50   A    
C78   F9    S    
C25   C61   A    
C74   C86   A    
C76   F11   S    
C47   C71   A    
C30   C66   A    
C85   C104  A    
C27   C63   A    
Cr3   O18   S    
C29   C65   A    
C28   C64   A    
C25   H32   S    
C75   C87   A    
C15   C24   A    
C48   H15   S    
C45   C54   A    
C16   C23   A    
C107  H11   S    
Cr5   O8    S    
Cr2   O2    S    
Cr5   O11   S    
C44   C68   A    
C100  H4    S    
Cr6   O24   S    
C106  H10   S    
C103  H7    S    
C102  H6    S    
C24   C72   A    
C15   C87   A    
C73   C85   A    
C101  C106  A    
C88   C107  A    
C34   C70   A    
C54   C81   A    
C100  C107  A    
C56   C73   A    
C94   C101  A    
C30   C33   A    
C95   C100  A    
C93   C102  A    
C57   C78   A    
C13   C20   A    
C8    O20   A    
C45   H18   S    
C10   O8    A    
C90   C105  A    
C1    O5    A    
Cr3   O25   S    
C8    C53   S    
Cr6   O21   S    
C37   C61   A    
C28   H35   S    
C47   C52   A    
C27   C36   A    
C18   C66   A    
C39   C63   A    
C60   C75   A    
C17   C65   A    
C17   C22   A    
C40   C64   A    
C49   C80   A    
Cr1   O13   S    
C2    O14   A    
C80   F1    S    
Cr2   O14   S    
C26   C62   A    
C55   C74   A    
C11   C50   S    
C21   C93   A    
C39   C60   A    
C59   C76   A    
C46   C53   A    
C23   C95   A    
Cr6   O12   S    
C91   C98   A    
Cr2   O17   S    
C46   C70   A    
C97   C104  A    
C19   C91   A    
Cr3   O15   S    
C3    C58   S    
Cr3   O6    S    
C13   C61   A    
C23   C71   A    
C11   O23   A    
C12   O10   A    
C13   C85   A    
Cr1   O4    S    
C42   C66   A    
C15   C63   A    
C16   C64   A    
C7    C54   S    
C108  H12   S    
C39   H24   S    
C32   H25   S    
C33   H30   S    
C6    O18   A    
C51   C84   A    
C22   C70   A    
C29   H34   S    
C36   C72   A    
C4    C57   S    
C10   O22   A    
C7    O19   A    
C9    O7    A    
