data_str_m2_o12_o13_f0_pcu.sym.82
_audit_creation_date              2013-03-05T15:45:02-0500
_audit_creation_method            fapswitch 2.2
_symmetry_space_group_name_H-M    P1
_symmetry_Int_Tables_number       1
_space_group_crystal_system       triclinic
_cell_length_a                    9.890945
_cell_length_b                    11.057722
_cell_length_c                    13.001287
_cell_angle_alpha                 89.553722
_cell_angle_beta                  76.380624
_cell_angle_gamma                 112.046232
_cell_volume                      1273.61412757

loop_
_atom_site_label
_atom_site_type_symbol
_atom_site_description
_atom_site_fract_x
_atom_site_fract_y
_atom_site_fract_z
_atom_type_partial_charge
O1    O     O_R   0.578710 0.332530 0.490040 -0.629779
O2    O     O_R   0.421290 0.667470 0.509960 -0.612467
O3    O     O_R   0.329810 0.295070 0.521560 -0.532517
O4    O     O_R   0.670190 0.704930 0.478440 -0.520823
C1    C     C_R   0.438043 0.253258 0.507791 0.712577
C2    C     C_R   0.562033 0.746895 0.491176 0.752879
O5    O     O_R   0.604230 0.515670 0.637800 -0.528080
O6    O     O_R   0.395770 0.484330 0.362200 -0.558713
O7    O     O_R   0.355330 0.478200 0.669330 -0.631850
O8    O     O_R   0.644670 0.521800 0.330670 -0.617382
C3    C     C_R   0.474232 0.496086 0.702001 0.812283
C4    C     C_R   0.523379 0.497850 0.298001 0.810841
Cu1   Cu    Cu3+1 0.647370 0.522180 0.481340 1.001445
Cu2   Cu    Cu3+1 0.352630 0.477820 0.518660 0.988331
C5    C     C_R   0.528253 0.482976 0.185698 -0.146030
C6    C     C_R   0.459943 0.493094 0.815443 -0.140179
C7    C     C_R   0.339412 0.535958 0.986533 -0.200876
C8    C     C_R   0.650744 0.438609 0.014247 -0.178906
C9    C     C_R   0.354716 0.536082 0.878272 -0.286719
C10   C     C_R   0.645398 0.454575 0.120881 -0.299748
C11   C     C_R   0.550337 0.448110 0.861474 0.426422
C12   C     C_R   0.413368 0.492245 0.142874 0.403672
C13   C     C_R   0.545995 0.461523 0.969021 0.018909
C14   C     C_R   0.432812 0.497212 0.032990 0.018481
H1    H     H_    0.730576 0.440942 0.153363 0.184772
H2    H     H_    0.284199 0.570087 0.843516 0.184998
H3    H     H_    0.256804 0.569232 0.033385 0.191448
H4    H     H_    0.739843 0.412873 0.966747 0.184887
H5    H     H_    0.374518 0.861249 0.493327 0.209398
H6    H     H_    0.627464 0.140110 0.451425 0.191842
C15   C     C_2   0.400284 0.111755 0.516037 0.152844
C16   C     C_2   0.599049 0.888448 0.487673 0.142873
C17   C     C_2   0.512967 0.069727 0.484940 -0.228222
C18   C     C_2   0.487699 0.930935 0.490273 -0.208975
H7    H     H_    0.832602 0.390441 0.546888 0.149885
H8    H     H_    0.166209 0.602769 0.446282 0.145788
N1    N     N_2   0.131210 0.444490 0.546730 -0.043544
N2    N     N_2   0.868790 0.555510 0.453270 -0.035159
C19   C     C_2   0.082647 0.514871 0.495538 0.109825
C20   C     C_2   0.915988 0.481323 0.501757 0.125914
O9    O     O_3   0.283529 0.499438 0.206993 -0.639958
C21   C     C_3   0.173715 0.370614 0.244120 0.116213
H9    H     H_    0.100683 0.376354 0.321406 0.187039
H10   H     H_    0.223777 0.299556 0.260541 0.150364
C22   C     C_3   0.073527 0.317442 0.167496 -0.450259
H11   H     H_    0.032036 0.391847 0.145536 0.224992
H12   H     H_    0.139807 0.295292 0.093963 0.224256
C23   C     C_3   0.938025 0.191791 0.217601 -0.831343
H13   H     H_    0.976675 0.114414 0.237416 0.284326
H14   H     H_    0.867687 0.156333 0.160440 0.244643
H15   H     H_    0.867721 0.210369 0.291003 0.262055
O10   O     O_3   0.642580 0.391305 0.802364 -0.614240
C24   C     C_3   0.553086 0.262930 0.783976 0.067172
H16   H     H_    0.618994 0.236665 0.712627 0.185170
H17   H     H_    0.446860 0.255872 0.764224 0.106404
C25   C     C_3   0.515083 0.162774 0.879482 -0.419991
H18   H     H_    0.619000 0.175214 0.904425 0.236320
H19   H     H_    0.434520 0.179603 0.947575 0.213121
C26   C     C_3   0.443906 0.022481 0.852488 -0.831022
H20   H     H_    0.337337 0.007220 0.830161 0.279195
H21   H     H_    0.417849 0.952382 0.922938 0.249607
H22   H     H_    0.522863 0.002066 0.785434 0.274156
N3    N     N_R   0.750365 0.977246 0.485469 0.135346
O11   O     O_R   0.865942 0.957839 0.428325 -0.343801
O12   O     O_R   0.772755 0.067593 0.550296 -0.371376
N4    N     N_R   0.246418 0.022369 0.561015 0.122590
O13   O     O_R   0.136567 0.039912 0.533123 -0.281412
O14   O     O_R   0.214571 0.934356 0.639633 -0.370274
O15   O     O_3   0.972813 0.679146 0.422067 -0.510373
C27   C     C_3   0.967667 0.721314 0.320869 0.259469
H23   H     H_    0.047134 0.825677 0.301418 0.154762
H24   H     H_    0.856180 0.720845 0.320549 0.186378
C28   C     C_3   0.018470 0.643345 0.233752 -0.460469
H25   H     H_    0.133590 0.650477 0.233158 0.259425
H26   H     H_    0.940396 0.538512 0.250216 0.228536
C29   C     C_3   0.020162 0.696421 0.124468 -0.913705
H27   H     H_    0.908377 0.698062 0.125111 0.269410
H28   H     H_    0.045546 0.632527 0.063919 0.254830
H29   H     H_    0.107811 0.797445 0.101746 0.261075
O16   O     O_3   0.026768 0.324183 0.589041 -0.507467
C30   C     C_3   0.044504 0.298163 0.690212 0.248187
H30   H     H_    0.046072 0.381071 0.738916 0.124456
H31   H     H_    0.148197 0.279532 0.683116 0.183648
C31   C     C_3   0.914340 0.172747 0.747590 -0.329123
H32   H     H_    0.805967 0.180133 0.747773 0.237253
H33   H     H_    0.920616 0.087755 0.704569 0.292437
C32   C     C_3   0.919694 0.148854 0.862145 -0.962564
H34   H     H_    0.027393 0.139735 0.863518 0.268034
H35   H     H_    0.824421 0.056476 0.901240 0.275849
H36   H     H_    0.909516 0.230966 0.907767 0.250309

loop_
_geom_bond_atom_site_label_1
_geom_bond_atom_site_label_2
_geom_bond_distance
_ccdc_geom_bond_type
C15   N4    1.441412 S    
N4    O14   1.301486 A    
C32   H34   1.111216 S    
N3    O12   1.300925 A    
C6    C11   1.409307 A    
O9    C21   1.422253 S    
C2    C16   1.465253 S    
C31   C32   1.527198 S    
C30   H30   1.115645 S    
C24   H16   1.109668 S    
O5    C3    1.295998 A    
O1    C1    1.299042 A    
C5    C12   1.412868 A    
C29   H28   1.109357 S    
C22   C23   1.525738 S    
C12   O9    1.387111 S    
C10   H1    1.082943 S    
C25   H18   1.109975 S    
C28   H25   1.109600 S    
C22   H12   1.110303 S    
O4    Cu1   1.946379 S    
C9    H2    1.083839 S    
C23   H15   1.110966 S    
C13   C14   1.413856 A    
C29   H29   1.110844 S    
C27   H23   1.111038 S    
C23   H14   1.110530 S    
N4    O13   1.300910 A    
N2    O15   1.353163 S    
C26   H20   1.111363 S    
Cu1   Cu2   2.689125 S    
C28   H26   1.110048 S    
O2    C2    1.299077 A    
C21   H10   1.116869 S    
C30   H31   1.103266 S    
C24   H17   1.114347 S    
C5    C10   1.403118 A    
N1    O16   1.352340 S    
C26   H21   1.110861 S    
C7    C14   1.399170 A    
C8    C13   1.401790 A    
C7    H3    1.081119 S    
C8    H4    1.083385 S    
C31   H32   1.104625 S    
O4    C2    1.295219 A    
C19   C20   1.529424 S    
C22   H11   1.109883 S    
H5    C18   1.086077 S    
C21   C22   1.535183 S    
C16   C18   1.343885 D    
O7    Cu2   1.965379 S    
C3    C6    1.447051 S    
C4    C5    1.462113 S    
O6    C4    1.293202 A    
C27   C28   1.533332 S    
C15   C17   1.342083 D    
C17   C18   1.457694 S    
C29   H27   1.110666 S    
O7    C3    1.290194 A    
Cu1   N2    2.020129 S    
O3    Cu2   1.946379 S    
O8    C4    1.301146 A    
C23   H13   1.110437 S    
C11   C13   1.399534 A    
C28   C29   1.527070 S    
C12   C14   1.393718 A    
O1    Cu1   1.939794 S    
C21   H9    1.108627 S    
C30   C31   1.525939 S    
O10   C24   1.420362 S    
C24   C25   1.534898 S    
C26   H22   1.111600 S    
O6    Cu2   1.972573 S    
H6    C17   1.085706 S    
H8    C19   1.084383 S    
C16   N3    1.442589 S    
C31   H33   1.111574 S    
O16   C30   1.408682 S    
O3    C1    1.294001 A    
O8    Cu1   1.965381 S    
C25   C26   1.526556 S    
C32   H35   1.110636 S    
H7    C20   1.084035 S    
N1    C19   1.304797 D    
Cu2   N1    2.020128 S    
N2    C20   1.306252 D    
C6    C9    1.397691 A    
C7    C9    1.379692 A    
C25   H19   1.111306 S    
C8    C10   1.390074 A    
O15   C27   1.410983 S    
O2    Cu2   1.939794 S    
N3    O11   1.300585 A    
O5    Cu1   1.972570 S    
C32   H36   1.111418 S    
C27   H24   1.101766 S    
C11   O10   1.387490 S    
C1    C15   1.462566 S    
