data_str_m3_o4_o16_f0_pcu.sym.74
_audit_creation_date              2012-12-10T20:30:15-0500
_audit_creation_method            fapswitch 2.2
_symmetry_space_group_name_H-M    P1
_symmetry_Int_Tables_number       1
_space_group_crystal_system       triclinic
_cell_length_a                    9.859584
_cell_length_b                    10.70124
_cell_length_c                    13.189137
_cell_angle_alpha                 89.684926
_cell_angle_beta                  70.245859
_cell_angle_gamma                 90.950023
_cell_volume                      1309.41924843

loop_
_atom_site_label
_atom_site_type_symbol
_atom_type_description
_atom_site_fract_x
_atom_site_fract_y
_atom_site_fract_z
_atom_type_partial_charge
C1    C     C_R   0.503079 0.739777 0.496023 0.888681
C2    C     C_R   0.368751 0.480618 0.821392 -0.121787
C3    C     C_R   0.426919 0.935279 0.437316 0.095254
C4    C     C_R   0.420207 0.492432 0.703940 0.860692
C5    C     C_R   0.514930 0.871211 0.482256 -0.095506
C6    C     C_R   0.618079 0.936982 0.513650 -0.228519
C7    C     C_R   0.613653 0.065661 0.518042 -0.237251
C8    C     C_R   0.504556 0.128016 0.493015 -0.114225
C9    C     C_R   0.416404 0.061703 0.448283 0.082609
C10   C     C_3   0.257947 0.058783 0.463918 -0.208038
C11   C     C_3   0.272700 0.918031 0.446229 -0.516808
C12   C     C_R   0.431954 0.475358 0.983997 0.087845
C13   C     C_R   0.911281 0.597830 0.542801 0.217739
C14   C     C_R   0.949699 0.409745 0.448545 -0.153217
C15   C     C_R   0.093796 0.409913 0.448343 -0.121586
C16   C     C_R   0.498989 0.259908 0.500724 0.877032
C17   C     C_R   0.053592 0.597421 0.543285 0.209519
C18   C     C_3   0.008249 0.639380 0.657288 -0.517550
C19   C     C_3   0.854782 0.641426 0.656351 -0.491645
C20   C     C_R   0.579749 0.500974 0.296056 0.870828
C21   C     C_R   0.784269 0.397664 0.016505 -0.212478
C22   C     C_R   0.627585 0.488678 0.179986 -0.054743
C23   C     C_R   0.463339 0.442749 0.875270 0.093425
C24   C     C_R   0.230879 0.522619 0.880643 -0.195091
C25   C     C_R   0.190810 0.535610 0.991465 -0.154688
C26   C     C_R   0.290958 0.515593 0.042815 -0.199554
C27   C     C_R   0.153743 0.085406 0.575825 0.210834
C28   C     C_R   0.012397 0.118501 0.586325 -0.155874
C29   C     C_R   0.906594 0.125326 0.688012 -0.153470
C30   C     C_R   0.940941 0.100391 0.780479 -0.128416
C31   C     C_R   0.081249 0.068852 0.771407 -0.156309
C32   C     C_R   0.186934 0.059869 0.669827 -0.146587
C33   C     C_R   0.542899 0.465882 0.029200 0.081013
C34   C     C_R   0.675577 0.409857 0.970696 0.186228
C35   C     C_R   0.696386 0.363770 0.868564 -0.290703
C36   C     C_R   0.589966 0.376045 0.822686 -0.226722
C37   C     C_R   0.526619 0.512904 0.130445 -0.262800
C38   C     C_R   0.759004 0.434560 0.122279 -0.210852
H1    H     H_    0.838572 0.415843 0.160112 0.154708
H2    H     H_    0.782571 0.571526 0.712155 0.237784
H3    H     H_    0.796335 0.320436 0.823310 0.163212
H4    H     H_    0.810969 0.737180 0.662095 0.196846
H5    H     H_    0.885561 0.354426 0.972411 0.142776
H6    H     H_    0.432894 0.565139 0.174611 0.151287
H7    H     H_    0.155563 0.549026 0.841059 0.152680
H8    H     H_    0.253913 0.529554 0.128700 0.132085
H9    H     H_    0.083712 0.566707 0.037151 0.148089
H10   H     H_    0.608744 0.332973 0.745293 0.173193
H11   H     H_    0.694919 0.889556 0.542070 0.168125
H12   H     H_    0.689650 0.115036 0.547252 0.162545
H13   H     H_    0.982694 0.134615 0.515502 0.110769
H14   H     H_    0.797402 0.148480 0.695054 0.125234
H15   H     H_    0.858593 0.104740 0.859213 0.131956
H16   H     H_    0.107395 0.048497 0.843070 0.134532
H17   H     H_    0.292601 0.028905 0.665239 0.136530
H18   H     H_    0.234179 0.108231 0.397597 0.140089
H19   H     H_    0.209566 0.859248 0.516590 0.215282
H20   H     H_    0.261860 0.888562 0.368593 0.189712
H21   H     H_    0.912096 0.335542 0.408752 0.145413
H22   H     H_    0.164955 0.336088 0.408198 0.141231
H23   H     H_    0.024599 0.566764 0.712402 0.213205
H24   H     H_    0.052034 0.733743 0.665210 0.201657
N1    N     N_R   0.856940 0.500860 0.500710 -0.104149
N2    N     N_R   0.142580 0.500820 0.500710 -0.102268
O1    O     O_R   0.385310 0.683210 0.499990 -0.619147
O2    O     O_R   0.614650 0.683240 0.500000 -0.618829
O3    O     O_R   0.328390 0.499940 0.653610 -0.609497
O4    O     O_R   0.557730 0.499980 0.653620 -0.617829
O5    O     O_R   0.385350 0.316760 0.500000 -0.612846
O6    O     O_R   0.614690 0.316790 0.500010 -0.633173
O7    O     O_R   0.442270 0.500020 0.346380 -0.618554
O8    O     O_R   0.671610 0.500060 0.346390 -0.616355
Zn1   Zn    Zn3+2 0.346870 0.499980 0.499990 0.943447
Zn2   Zn    Zn3+2 0.653130 0.500020 0.500010 0.932981

loop_
_geom_bond_atom_site_label_1
_geom_bond_atom_site_label_2
_ccdc_geom_bond_type
C10   C27   S    
C15   H22   S    
C35   C36   A    
C7    C8    A    
C14   H21   S    
C12   C23   A    
C1    C5    S    
C24   H7    S    
C28   C29   A    
C18   C19   S    
C17   N2    A    
C30   C31   A    
C28   H13   S    
O4    Zn2   S    
C22   C38   A    
O1    Zn1   S    
C34   C35   A    
C21   H5    S    
C21   C38   A    
C8    C9    A    
O6    Zn2   S    
C1    O1    A    
C15   N2    A    
C20   O7    A    
O5    Zn1   S    
O3    Zn1   S    
C11   H20   S    
C10   H18   S    
C9    C10   S    
C25   H9    S    
C32   H17   S    
C19   H4    S    
C8    C16   S    
C33   C34   A    
C30   H15   S    
C13   C19   S    
C31   H16   S    
C16   O6    A    
C24   C25   A    
O8    Zn2   S    
C19   H2    S    
O7    Zn1   S    
C18   H24   S    
C21   C34   A    
C25   C26   A    
C22   C37   A    
C33   C37   A    
C12   C26   A    
C1    O2    A    
C2    C4    S    
C29   C30   A    
C3    C9    A    
C31   C32   A    
C13   N1    A    
N2    Zn1   S    
C17   C18   S    
C20   C22   S    
C2    C24   A    
C27   C28   A    
C4    O4    A    
C27   C32   A    
C16   O5    A    
C7    H12   S    
C3    C5    A    
C4    O3    A    
C18   H23   S    
C6    C7    A    
N1    Zn2   S    
C13   C17   A    
C37   H6    S    
C38   H1    S    
C14   N1    A    
C36   H10   S    
C6    H11   S    
C35   H3    S    
C3    C11   S    
C10   C11   S    
C26   H8    S    
C23   C36   A    
C2    C23   A    
C5    C6    A    
C14   C15   A    
C20   O8    A    
C12   C33   A    
C11   H19   S    
C29   H14   S    
O2    Zn2   S    
