data_str_m9_o16_o23_f0_sra.sym.81
_audit_creation_date              2012-12-11T15:12:50-0500
_audit_creation_method            fapswitch 2.2
_symmetry_space_group_name_H-M    P1
_symmetry_Int_Tables_number       1
_space_group_crystal_system       triclinic
_cell_length_a                    22.273314
_cell_length_b                    6.937462
_cell_length_c                    19.422562
_cell_angle_alpha                 90.015299
_cell_angle_beta                  99.330538
_cell_angle_gamma                 89.955922
_cell_volume                      2961.47133135

loop_
_atom_site_label
_atom_site_type_symbol
_atom_type_description
_atom_site_fract_x
_atom_site_fract_y
_atom_site_fract_z
_atom_type_partial_charge
O1    O     O_R   0.448420 0.506120 0.415750 -0.537301
O2    O     O_R   0.551580 0.006120 0.584250 -0.538104
O3    O     O_R   0.436490 0.174470 0.555610 -0.533486
O4    O     O_R   0.563510 0.674470 0.444390 -0.534042
C1    C     C_R   0.421257 0.344575 0.576042 0.713453
C2    C     C_R   0.578809 0.844503 0.424047 0.715151
O5    O     O_R   0.441310 0.176330 0.414520 -0.537308
O6    O     O_R   0.558690 0.676330 0.585480 -0.538057
O7    O     O_R   0.556430 0.007110 0.442150 -0.532950
O8    O     O_R   0.443570 0.507110 0.557850 -0.533008
C3    C     C_R   0.426854 0.345285 0.388229 0.701522
C4    C     C_R   0.573162 0.844811 0.611727 0.701028
O9    O     O_3   0.537770 0.339560 0.509230 -0.367774
O10   O     O_3   0.462230 0.839560 0.490770 -0.366692
V1    V     V_3+5 0.492990 0.064280 0.498290 1.475855
V2    V     V_3+5 0.507010 0.564280 0.501710 1.474365
C5    C     C_R   0.870476 0.931691 0.693506 -0.099332
C6    C     C_R   0.134294 0.555308 0.301902 -0.094796
C7    C     C_R   0.884590 0.939407 0.820812 -0.181247
C8    C     C_R   0.115030 0.446880 0.180330 -0.188316
C9    C     C_R   0.591473 0.785817 0.739504 -0.104902
C10   C     C_R   0.410049 0.329547 0.258353 -0.107706
C11   C     C_R   0.631514 0.735478 0.800412 -0.102624
C12   C     C_R   0.374233 0.367225 0.193217 -0.103494
C13   C     C_R   0.694873 0.755158 0.803164 -0.043654
C14   C     C_R   0.312537 0.419866 0.189107 -0.039539
C15   C     C_R   0.718434 0.852462 0.748586 0.062405
C16   C     C_R   0.283907 0.412355 0.249650 0.060157
C17   C     C_R   0.678070 0.883656 0.684712 0.034722
C18   C     C_R   0.322432 0.399966 0.315577 0.033130
C19   C     C_R   0.781708 0.902747 0.752943 0.039055
C20   C     C_R   0.219127 0.433445 0.247355 0.044356
C21   C     C_R   0.805964 0.932527 0.690246 -0.022350
C22   C     C_R   0.196739 0.498377 0.308325 -0.018798
C23   C     C_R   0.764443 0.965271 0.627431 -0.051218
C24   C     C_R   0.237899 0.500045 0.372966 -0.053883
C25   C     C_R   0.701985 0.944976 0.626017 -0.210467
C26   C     C_R   0.298012 0.440212 0.375957 -0.199878
C27   C     C_R   0.820425 0.936716 0.817792 0.301828
C28   C     C_R   0.176288 0.382410 0.187127 0.292868
C29   C     C_R   0.909133 0.928814 0.758654 -0.126172
C30   C     C_R   0.094876 0.535029 0.237710 -0.117758
C31   C     C_R   0.614638 0.847592 0.679957 -0.134618
C32   C     C_R   0.385363 0.355352 0.320011 -0.133295
H1    H     H_    0.671881 0.975105 0.577515 0.112373
H2    H     H_    0.326807 0.434666 0.426620 0.105816
C33   C     C_3   0.814947 0.783102 0.270209 -0.361733
C34   C     C_3   0.186687 0.273616 0.732043 -0.371722
C35   C     C_3   0.773200 0.109783 0.231880 -0.359666
C36   C     C_3   0.224374 0.607957 0.765451 -0.354858
C37   C     C_3   0.724405 0.092707 0.280432 -0.417910
C38   C     C_3   0.273313 0.591264 0.717076 -0.426361
H3    H     H_    0.858091 0.846203 0.297977 0.180513
H4    H     H_    0.142676 0.329179 0.703619 0.175541
H5    H     H_    0.755517 0.203457 0.186583 0.170648
H6    H     H_    0.240878 0.707770 0.809319 0.172005
H7    H     H_    0.814526 0.181085 0.260696 0.166560
H8    H     H_    0.182164 0.672048 0.735704 0.173966
H9    H     H_    0.741476 0.161184 0.331594 0.184556
H10   H     H_    0.255382 0.653141 0.665013 0.188746
H11   H     H_    0.683407 0.176886 0.257874 0.197401
H12   H     H_    0.313269 0.681536 0.738379 0.196254
C39   C     C_1   0.624168 0.853761 0.378090 -0.132151
C40   C     C_1   0.376033 0.353864 0.622194 -0.131271
C41   C     C_3   0.790144 0.908643 0.205775 0.177546
C42   C     C_3   0.209996 0.407887 0.794509 0.178762
C43   C     C_3   0.766679 0.764763 0.320097 0.231731
C44   C     C_3   0.234987 0.255815 0.682158 0.237853
C45   C     C_3   0.707159 0.877754 0.290287 0.146640
C46   C     C_3   0.293133 0.377404 0.710162 0.148764
C47   C     C_3   0.681869 0.790298 0.216358 0.229515
C48   C     C_3   0.319553 0.299353 0.785211 0.225555
C49   C     C_3   0.731252 0.812287 0.167179 -0.396791
C50   C     C_3   0.270066 0.321376 0.834279 -0.394853
C51   C     C_1   0.661582 0.863440 0.338969 0.051084
C52   C     C_1   0.338713 0.363292 0.661454 0.052420
C53   C     C_1   0.836578 0.926704 0.158685 -0.017653
C54   C     C_1   0.163462 0.425980 0.841450 -0.017486
C55   C     C_1   0.874768 0.939216 0.120655 -0.136409
C56   C     C_1   0.125206 0.438725 0.879374 -0.141612
H13   H     H_    0.743037 0.668432 0.147688 0.163675
H14   H     H_    0.260097 0.178529 0.855968 0.163577
H15   H     H_    0.713536 0.898977 0.119935 0.150424
H16   H     H_    0.286785 0.414485 0.880149 0.155254
H17   H     H_    0.826462 0.636760 0.252701 0.147125
H18   H     H_    0.177182 0.127887 0.751732 0.149198
H19   H     H_    0.755169 0.609356 0.323374 0.164958
H20   H     H_    0.248375 0.101473 0.680873 0.165009
O11   O     O_R   0.056480 0.288780 0.942210 -0.537524
O12   O     O_R   0.943520 0.788780 0.057790 -0.527888
O13   O     O_R   0.058700 0.616820 0.085490 -0.532577
O14   O     O_R   0.941300 0.116820 0.914510 -0.539301
C57   C     C_R   0.073779 0.448563 0.111599 0.703763
C58   C     C_R   0.926596 0.948316 0.888431 0.702212
O15   O     O_R   0.063520 0.618570 0.944410 -0.533049
O16   O     O_R   0.936480 0.118570 0.055590 -0.540789
O17   O     O_R   0.948420 0.787670 0.915740 -0.532808
O18   O     O_R   0.051580 0.287670 0.084260 -0.545265
C59   C     C_R   0.079082 0.449644 0.924228 0.731211
C60   C     C_R   0.920879 0.949770 0.075745 0.730085
O19   O     O_3   0.962260 0.453430 0.990800 -0.363478
O20   O     O_3   0.037740 0.953430 0.009200 -0.369977
V3    V     V_3+5 0.007000 0.728750 0.001710 1.500300
V4    V     V_3+5 0.993000 0.228750 0.998290 1.473514
C61   C     C_1   0.974802 0.923101 0.761880 0.321035
N1    N     N_1   0.027079 0.918571 0.764546 -0.360276
C62   C     C_1   0.031890 0.598415 0.231378 0.331039
N2    N     N_1   0.981807 0.648638 0.226421 -0.364950
O21   O     O_3   0.668503 0.593576 0.224280 -0.659296
H21   H     H_    0.653256 0.539298 0.177328 0.303139
O22   O     O_3   0.335139 0.103345 0.779959 -0.657606
H22   H     H_    0.351068 0.054901 0.827592 0.305057
C63   C     C_1   0.782556 0.042664 0.564806 0.347005
N3    N     N_1   0.796489 0.106293 0.514633 -0.315379
C64   C     C_1   0.221458 0.555059 0.439238 0.348137
N4    N     N_1   0.209209 0.599599 0.492689 -0.313925
C65   C     C_1   0.624963 0.889458 0.184697 0.319311
N5    N     N_1   0.580606 0.966450 0.159837 -0.293947
C66   C     C_1   0.375301 0.406527 0.815383 0.322266
N6    N     N_1   0.418754 0.489653 0.839217 -0.285092
C67   C     C_1   0.898324 0.917069 0.631089 0.349472
N7    N     N_1   0.920993 0.904679 0.581679 -0.279582
C68   C     C_1   0.109319 0.644575 0.358728 0.341932
N8    N     N_1   0.088609 0.716419 0.403330 -0.283860
O23   O     O_3   0.793738 0.983860 0.875260 -0.640176
H23   H     H_    0.824968 0.016373 0.915773 0.283330
O24   O     O_3   0.195041 0.258886 0.138748 -0.646361
H24   H     H_    0.160491 0.222623 0.102571 0.295692
C69   C     C_1   0.526274 0.762880 0.736367 0.328051
N9    N     N_1   0.474268 0.745210 0.733508 -0.320680
C70   C     C_1   0.473822 0.279071 0.262378 0.326419
N10   N     N_1   0.524688 0.239219 0.265843 -0.323086
C71   C     C_1   0.734523 0.644997 0.855706 0.374033
N11   N     N_1   0.765949 0.556400 0.897439 -0.332018
C72   C     C_1   0.283002 0.513966 0.125703 0.378334
N12   N     N_1   0.259686 0.589412 0.075204 -0.346388
C73   C     C_1   0.607591 0.653473 0.859205 0.350998
N13   N     N_1   0.588520 0.588123 0.906046 -0.287023
C74   C     C_1   0.401612 0.359237 0.130298 0.349603
N14   N     N_1   0.423421 0.352850 0.080161 -0.289248
O25   O     O_3   0.790529 0.822857 0.388558 -0.622421
H25   H     H_    0.810563 0.949698 0.386249 0.325021
O26   O     O_3   0.210260 0.305400 0.613056 -0.622854
H26   H     H_    0.188391 0.429669 0.613861 0.325743

loop_
_geom_bond_atom_site_label_1
_geom_bond_atom_site_label_2
_ccdc_geom_bond_type
C8    C57   S    
C27   O23   S    
C10   C70   S    
C15   C17   A    
O22   H22   S    
O1    C3    A    
O2    C4    A    
C2    O7    A    
C35   H7    S    
C68   N8    T    
O5    C3    A    
C35   C41   S    
O11   C59   A    
C72   N12   T    
C33   H17   S    
C10   C12   A    
C23   C25   A    
C12   C14   A    
C63   N3    T    
C4    C31   S    
C6    C30   A    
C8    C28   A    
O15   C59   A    
O26   H26   S    
C42   C50   S    
O16   C60   A    
C41   C49   S    
C18   C26   A    
C44   O26   S    
C49   H13   S    
C45   C47   S    
C14   C72   S    
C38   H10   S    
C9    C31   A    
O25   H25   S    
C10   C32   A    
C35   C37   S    
C37   H11   S    
C36   C38   S    
C62   N2    T    
C19   C21   A    
C45   C51   S    
O10   V2    S    
C13   C71   S    
C30   C62   S    
C6    C68   S    
C33   H3    S    
O5    V1    S    
C48   O22   S    
O6    V2    S    
C17   C31   A    
C18   C32   A    
C5    C21   A    
C50   H14   S    
O12   C60   A    
O15   V3    S    
C29   C61   S    
C53   C55   T    
C12   C74   S    
C42   C54   S    
C74   N14   T    
C41   C53   S    
C47   C65   S    
C15   C19   A    
C36   H8    S    
C55   C60   S    
C16   C20   A    
C48   C50   S    
C50   H16   S    
C47   C49   S    
C58   O17   A    
C35   H5    S    
C28   O24   S    
C38   H12   S    
C36   H6    S    
C1    C40   S    
C43   C45   S    
C20   C22   A    
C2    C39   S    
O4    V2    S    
C34   H4    S    
O13   C57   A    
C36   C42   S    
O6    C4    A    
O14   C58   A    
C40   C52   T    
C54   C56   T    
C3    C32   S    
C33   C43   S    
O1    V2    S    
C34   C44   S    
O20   V4    S    
O2    V1    S    
C6    C22   A    
C9    C69   S    
C67   N7    T    
O17   V3    S    
C7    C58   S    
C7    C27   A    
C5    C67   S    
O19   V4    S    
O9    V1    S    
O11   V4    S    
C46   C52   S    
O23   H23   S    
C44   H20   S    
C34   H18   S    
O4    C2    A    
C37   H9    S    
C25   H1    S    
O24   H24   S    
C43   O25   S    
O3    V1    S    
C69   N9    T    
C73   N13   T    
O16   V4    S    
C43   H19   S    
C11   C73   S    
O13   V3    S    
O3    C1    A    
C8    C30   A    
C66   N6    T    
C49   H15   S    
C13   C15   A    
C61   N1    T    
C14   C16   A    
C9    C11   A    
O7    V1    S    
C1    O8    A    
C56   C59   S    
O8    V2    S    
C65   N5    T    
C24   C26   A    
C64   N4    T    
C71   N11   T    
C39   C51   T    
O18   V4    S    
C47   O21   S    
C48   C66   S    
C16   C18   A    
C21   C23   A    
C19   C27   A    
C23   C63   S    
C22   C24   A    
C20   C28   A    
O20   V3    S    
C5    C29   A    
O12   V3    S    
C26   H2    S    
C38   C46   S    
O14   V4    S    
C7    C29   A    
C11   C13   A    
O19   V3    S    
O9    V2    S    
C17   C25   A    
C44   C46   S    
O10   V1    S    
C46   C48   S    
C37   C45   S    
C34   C42   S    
O21   H21   S    
C24   C64   S    
C57   O18   A    
C33   C41   S    
C70   N10   T    
