data_str_m9_o18_o28_f0_sra.sym.27
_audit_creation_date              2012-12-11T15:34:51-0500
_audit_creation_method            fapswitch 2.2
_symmetry_space_group_name_H-M    P1
_symmetry_Int_Tables_number       1
_space_group_crystal_system       triclinic
_cell_length_a                    30.590158
_cell_length_b                    7.243949
_cell_length_c                    25.986342
_cell_angle_alpha                 90.004315
_cell_angle_beta                  112.258104
_cell_angle_gamma                 90.022538
_cell_volume                      5329.32862731

loop_
_atom_site_label
_atom_site_type_symbol
_atom_type_description
_atom_site_fract_x
_atom_site_fract_y
_atom_site_fract_z
_atom_type_partial_charge
O1    O     O_R   0.295360 0.592990 0.320420 -0.535331
O2    O     O_R   0.704640 0.407010 0.679580 -0.523253
O3    O     O_R   0.204640 0.092990 0.179580 -0.535359
O4    O     O_R   0.795360 0.907010 0.820420 -0.523273
O5    O     O_R   0.294060 0.265620 0.213230 -0.511678
O6    O     O_R   0.705940 0.734380 0.786770 -0.527883
O7    O     O_R   0.205940 0.765620 0.286770 -0.513177
O8    O     O_R   0.794060 0.234380 0.713230 -0.527957
C1    C     C_R   0.304151 0.432627 0.199248 0.735596
C2    C     C_R   0.695858 0.567719 0.800480 0.776610
C3    C     C_R   0.195826 0.932365 0.300748 0.758583
C4    C     C_R   0.804131 0.067763 0.699498 0.776517
O9    O     O_R   0.300850 0.263360 0.322080 -0.532506
O10   O     O_R   0.699150 0.736640 0.677920 -0.543166
O11   O     O_R   0.199150 0.763360 0.177920 -0.537426
O12   O     O_R   0.800850 0.236640 0.822080 -0.543102
O13   O     O_R   0.211480 0.091820 0.289210 -0.519929
O14   O     O_R   0.788520 0.908180 0.710790 -0.521518
O15   O     O_R   0.288520 0.591820 0.210790 -0.554173
O16   O     O_R   0.711480 0.408180 0.789210 -0.521484
C5    C     C_R   0.313425 0.431609 0.343221 0.694479
C6    C     C_R   0.686679 0.568042 0.656754 0.690516
C7    C     C_R   0.186582 0.931523 0.156766 0.675052
C8    C     C_R   0.813326 0.068126 0.843244 0.690415
O17   O     O_3   0.220670 0.426670 0.239090 -0.362934
O18   O     O_3   0.779330 0.573330 0.760910 -0.371163
O19   O     O_3   0.279330 0.926670 0.260910 -0.379483
O20   O     O_3   0.720670 0.073330 0.739090 -0.371136
V1    V     V_3+5 0.255440 0.152290 0.252020 1.468128
V2    V     V_3+5 0.744560 0.847710 0.747980 1.487902
V3    V     V_3+5 0.244560 0.652290 0.247980 1.450900
V4    V     V_3+5 0.755440 0.347710 0.752020 1.488039
C9    C     C_R   0.849933 0.056788 0.899817 -0.061805
C10   C     C_R   0.149454 0.935333 0.100328 -0.039148
C11   C     C_R   0.650078 0.556243 0.600182 -0.061880
C12   C     C_R   0.350525 0.435857 0.399663 -0.043997
C13   C     C_R   0.869823 0.028679 0.998645 -0.142152
C14   C     C_R   0.126248 0.870837 0.002435 -0.139407
C15   C     C_R   0.630274 0.522593 0.501513 -0.142420
C16   C     C_R   0.373455 0.376466 0.497789 -0.143669
C17   C     C_R   0.836247 0.053882 0.945225 -0.150557
C18   C     C_R   0.161237 0.886987 0.055280 -0.161866
C19   C     C_R   0.663832 0.549590 0.554852 -0.150419
C20   C     C_R   0.338558 0.391056 0.444830 -0.160253
C21   C     C_R   0.897850 0.033803 0.908365 -0.156365
C22   C     C_R   0.101833 0.967680 0.091829 -0.214264
C23   C     C_R   0.602102 0.535192 0.591631 -0.156618
C24   C     C_R   0.398224 0.466155 0.408137 -0.217601
C25   C     C_R   0.932415 0.992490 0.962061 0.100500
C26   C     C_R   0.064822 0.934718 0.039231 0.084848
C27   C     C_R   0.567535 0.491904 0.538091 0.100609
C28   C     C_R   0.435104 0.434833 0.460928 0.086441
C29   C     C_R   0.917485 0.998233 0.007391 0.056270
C30   C     C_R   0.078467 0.894082 0.994072 0.107601
C31   C     C_R   0.582552 0.493848 0.492805 0.056534
C32   C     C_R   0.421300 0.397908 0.506182 0.109534
C33   C     C_R   0.981083 0.948901 0.972674 0.021249
C34   C     C_R   0.015123 0.944364 0.029304 -0.046153
C35   C     C_R   0.518797 0.449762 0.527578 0.020935
C36   C     C_R   0.484829 0.442828 0.470937 -0.046428
C37   C     C_R   0.997308 0.936427 0.072878 0.198626
C38   C     C_R   0.996603 0.895258 0.929603 0.196536
C39   C     C_R   0.502713 0.431023 0.427484 0.199516
C40   C     C_R   0.503115 0.399790 0.570817 0.196595
C41   C     C_R   0.949568 0.966227 0.061197 -0.161069
C42   C     C_R   0.044538 0.870950 0.940855 -0.245679
C43   C     C_R   0.550498 0.459556 0.439123 -0.161776
C44   C     C_R   0.455127 0.376845 0.559550 -0.246989
H1    H     H_    0.937116 0.958959 0.095091 0.150111
H2    H     H_    0.055240 0.830389 0.907158 0.133002
H3    H     H_    0.563008 0.449332 0.405328 0.149646
H4    H     H_    0.444297 0.339124 0.593372 0.132706
H5    H     H_    0.094958 0.020133 0.126666 0.112643
H6    H     H_    0.906970 0.054281 0.872630 0.145408
H7    H     H_    0.405271 0.516046 0.373141 0.111686
H8    H     H_    0.592965 0.558334 0.627239 0.145500
H9    H     H_    0.197663 0.862249 0.060990 0.121657
H10   H     H_    0.799442 0.070691 0.939256 0.117886
H11   H     H_    0.302060 0.368040 0.439123 0.107070
H12   H     H_    0.700685 0.564715 0.560829 0.118053
H13   H     H_    0.858286 0.029190 0.033275 0.121714
H14   H     H_    0.136549 0.836135 0.968032 0.123077
H15   H     H_    0.641875 0.520148 0.466938 0.121544
H16   H     H_    0.363024 0.344615 0.532282 0.119328
C45   C     C_R   0.092870 0.956274 0.481611 0.556133
C46   C     C_R   0.905048 0.986084 0.518121 0.557797
C47   C     C_R   0.407408 0.444042 0.018467 0.557599
C48   C     C_R   0.595119 0.488971 0.982137 0.558215
N1    N     N_R   0.073168 0.961189 0.424652 -0.537354
N2    N     N_R   0.924741 0.017912 0.574277 -0.537677
N3    N     N_R   0.426909 0.456768 0.075329 -0.538503
N4    N     N_R   0.575312 0.516088 0.925754 -0.537291
C49   C     C_R   0.025285 0.965777 0.396969 0.577986
C50   C     C_R   0.972605 0.028687 0.601554 0.574795
C51   C     C_R   0.474714 0.468467 0.103037 0.578155
C52   C     C_R   0.527389 0.520777 0.898324 0.574346
C53   C     C_R   0.995097 0.968608 0.426459 -0.049441
C54   C     C_R   0.002781 0.008964 0.572424 -0.047833
C55   C     C_R   0.504970 0.470926 0.073643 -0.048602
C56   C     C_R   0.497298 0.499314 0.927493 -0.047622
C57   C     C_R   0.014361 0.977818 0.484886 -0.044254
C58   C     C_R   0.983519 0.989470 0.514236 -0.044375
C59   C     C_R   0.485764 0.473244 0.015161 -0.044199
C60   C     C_R   0.516592 0.485669 0.985821 -0.044517
C61   C     C_R   0.064289 0.975389 0.513757 -0.047882
C62   C     C_R   0.933599 0.981717 0.485616 -0.047997
C63   C     C_R   0.435910 0.463175 0.986228 -0.048949
C64   C     C_R   0.566529 0.484512 0.014588 -0.047869
C65   C     C_R   0.946041 0.964950 0.398108 -0.173224
C66   C     C_R   0.051829 0.010469 0.600835 -0.173895
C67   C     C_R   0.554015 0.473763 0.102114 -0.173571
C68   C     C_R   0.448290 0.493104 0.898965 -0.173487
C69   C     C_R   0.914880 0.969510 0.426199 0.124509
C70   C     C_R   0.083002 0.992173 0.573074 0.124950
C71   C     C_R   0.585223 0.478340 0.074088 0.124600
C72   C     C_R   0.417201 0.472805 0.926768 0.124707
O21   O     O_2   0.139814 0.930431 0.506345 -0.539571
O22   O     O_2   0.858206 0.955719 0.494663 -0.538380
O23   O     O_2   0.360775 0.410452 0.993947 -0.535591
O24   O     O_2   0.642118 0.463077 0.005896 -0.538803
O25   O     O_2   0.006870 0.968097 0.340849 -0.529335
O26   O     O_2   0.991025 0.058503 0.656959 -0.534069
O27   O     O_2   0.492988 0.478366 0.159085 -0.530962
O28   O     O_2   0.508820 0.546163 0.842723 -0.534647
H17   H     H_    0.931586 0.959240 0.353075 0.166099
H18   H     H_    0.066275 0.026755 0.645634 0.165171
H19   H     H_    0.568418 0.473050 0.147179 0.165981
H20   H     H_    0.433807 0.504455 0.854028 0.164858
C73   C     C_R   0.896286 0.898322 0.644690 -0.177057
C74   C     C_R   0.103178 0.804149 0.360660 -0.169849
C75   C     C_R   0.603987 0.396713 0.855499 -0.177033
C76   C     C_R   0.398603 0.306639 0.142035 -0.159657
H21   H     H_    0.920224 0.782714 0.650981 0.149810
H22   H     H_    0.079773 0.689829 0.358823 0.151254
H23   H     H_    0.580295 0.280293 0.849406 0.150824
H24   H     H_    0.423302 0.195313 0.145911 0.150823
C77   C     C_R   0.868242 0.911133 0.676554 0.095630
C78   C     C_R   0.131784 0.796643 0.329398 0.110725
C79   C     C_R   0.631891 0.410235 0.823494 0.095537
C80   C     C_R   0.369964 0.301183 0.173359 0.140750
C81   C     C_R   0.836001 0.058839 0.667972 -0.101615
C82   C     C_R   0.163772 0.942110 0.332585 -0.125996
C83   C     C_R   0.663952 0.558595 0.831946 -0.101907
C84   C     C_R   0.336404 0.442742 0.167734 -0.161274
C85   C     C_R   0.834153 0.196899 0.628547 0.119510
C86   C     C_R   0.164717 0.098273 0.366412 0.138452
C87   C     C_R   0.665575 0.697060 0.871170 0.119333
C88   C     C_R   0.334312 0.593540 0.131443 0.124241
C89   C     C_R   0.864340 0.187571 0.598809 0.181149
C90   C     C_R   0.133013 0.109161 0.394408 0.188095
C91   C     C_R   0.635297 0.687591 0.900787 0.181937
C92   C     C_R   0.365277 0.601910 0.102986 0.246209
C93   C     C_R   0.894614 0.034331 0.605696 0.293780
C94   C     C_R   0.103495 0.958062 0.393242 0.288762
C95   C     C_R   0.605393 0.533187 0.894279 0.292887
C96   C     C_R   0.396517 0.454797 0.106664 0.253626
N5    N     N_3   0.800305 0.343704 0.617213 -0.647284
H25   H     H_    0.818287 0.469578 0.624034 0.250322
H26   H     H_    0.778128 0.337115 0.575202 0.242866
N6    N     N_3   0.199179 0.241737 0.373517 -0.632837
H27   H     H_    0.232276 0.184817 0.396333 0.208722
H28   H     H_    0.195036 0.352604 0.396895 0.260745
N7    N     N_3   0.699308 0.844395 0.882460 -0.646993
H29   H     H_    0.681240 0.970002 0.875577 0.250300
H30   H     H_    0.721457 0.838226 0.924487 0.242724
N8    N     N_3   0.299784 0.737582 0.120511 -0.619306
H31   H     H_    0.266293 0.678071 0.108897 0.220365
H32   H     H_    0.307176 0.818172 0.156116 0.249292
N9    N     N_3   0.864649 0.337905 0.563019 -0.668283
H33   H     H_    0.899379 0.384757 0.574352 0.235963
H34   H     H_    0.852681 0.290874 0.522068 0.257642
N10   N     N_3   0.130090 0.276522 0.422507 -0.684501
H35   H     H_    0.094889 0.320069 0.407645 0.235255
H36   H     H_    0.141199 0.250886 0.465035 0.257116
N11   N     N_3   0.634443 0.839155 0.935926 -0.669499
H37   H     H_    0.599533 0.883764 0.924542 0.235414
H38   H     H_    0.646791 0.794463 0.977106 0.258646
N12   N     N_3   0.365454 0.765285 0.071848 -0.617312
H39   H     H_    0.400028 0.815557 0.085142 0.221551
H40   H     H_    0.354080 0.731947 0.029775 0.254950
N13   N     N_3   0.023759 0.864901 0.127347 -0.671446
H41   H     H_    0.038896 0.973016 0.154978 0.233098
H42   H     H_    0.048280 0.765559 0.126639 0.243729
N14   N     N_3   0.964048 0.841843 0.875570 -0.687926
H43   H     H_    0.971219 0.920196 0.845867 0.227432
H44   H     H_    0.969892 0.702989 0.869176 0.239996
N15   N     N_3   0.476255 0.356701 0.373370 -0.673853
H45   H     H_    0.461311 0.463442 0.345148 0.231914
H46   H     H_    0.451559 0.258737 0.374510 0.243548
N16   N     N_3   0.535528 0.348690 0.625148 -0.688275
H47   H     H_    0.528391 0.429447 0.654418 0.227758
H48   H     H_    0.529502 0.210581 0.632199 0.239717
C97   C     C_3   0.862523 0.969637 0.389821 -0.304169
C98   C     C_3   0.841342 0.162851 0.385343 -0.682110
H49   H     H_    0.846616 0.220177 0.426800 0.239127
H50   H     H_    0.858178 0.257335 0.364600 0.212166
H51   H     H_    0.802861 0.157068 0.360105 0.212820
H52   H     H_    0.856762 0.924541 0.346821 0.153361
H53   H     H_    0.842796 0.866338 0.403938 0.221632
C99   C     C_3   0.135344 0.000277 0.609336 -0.306392
C100  C     C_3   0.156306 0.189291 0.605951 -0.678407
H54   H     H_    0.194770 0.188722 0.631431 0.211990
H55   H     H_    0.151083 0.225273 0.562587 0.240208
H56   H     H_    0.139273 0.297218 0.622397 0.211760
H57   H     H_    0.141091 0.976932 0.653736 0.153134
H58   H     H_    0.155236 0.886495 0.599782 0.220901
C101  C     C_3   0.637528 0.485303 0.110547 -0.304700
C102  C     C_3   0.657335 0.680406 0.113384 -0.682279
H59   H     H_    0.651735 0.734217 0.071461 0.238679
H60   H     H_    0.639769 0.774987 0.133231 0.212431
H61   H     H_    0.695825 0.679545 0.138729 0.212914
H62   H     H_    0.643511 0.443785 0.153901 0.153400
H63   H     H_    0.658042 0.382640 0.097411 0.221784
C103  C     C_3   0.364871 0.470959 0.890289 -0.307365
C104  C     C_3   0.341893 0.657559 0.891197 -0.675063
H64   H     H_    0.303488 0.649742 0.865698 0.213160
H65   H     H_    0.346645 0.698602 0.934045 0.240451
H66   H     H_    0.357824 0.765653 0.873422 0.210799
H67   H     H_    0.359545 0.442389 0.846260 0.152735
H68   H     H_    0.346119 0.355922 0.901172 0.222387
N17   N     N_3   0.873856 0.776722 0.719064 -0.636813
H69   H     H_    0.867916 0.645970 0.700742 0.234539
H70   H     H_    0.908929 0.781327 0.747238 0.233982
N18   N     N_3   0.127176 0.641932 0.293341 -0.627784
H71   H     H_    0.133325 0.521591 0.317213 0.258022
H72   H     H_    0.092286 0.637579 0.264633 0.236375
N19   N     N_3   0.626265 0.276000 0.780921 -0.636504
H73   H     H_    0.632260 0.145191 0.799173 0.234305
H74   H     H_    0.591173 0.280396 0.752802 0.234380
N20   N     N_3   0.376229 0.153128 0.212067 -0.640956
H75   H     H_    0.372191 0.028585 0.190449 0.239965
H76   H     H_    0.410945 0.158593 0.241202 0.235520

loop_
_geom_bond_atom_site_label_1
_geom_bond_atom_site_label_2
_ccdc_geom_bond_type
O17   V3    S    
C55   C59   A    
C25   C29   A    
C80   N20   S    
N5    H25   S    
C54   C66   A    
C71   C101  S    
O19   V1    S    
C9    C21   A    
C100  H54   S    
C82   C86   A    
O3    C7    A    
N7    H29   S    
C10   C18   A    
N4    C52   A    
C84   C88   A    
C11   C23   A    
N18   H71   S    
N20   H76   S    
N12   H39   S    
C33   C34   A    
C25   C33   A    
C33   C38   A    
N11   H38   S    
C5    C12   S    
C46   C62   A    
N13   H41   S    
C4    C81   S    
O1    C5    A    
C6    C11   S    
C35   C40   A    
C99   H57   S    
C36   C39   A    
C89   N9    S    
C40   C44   A    
C64   C71   A    
C79   N19   S    
N7    H30   S    
C49   O25   S    
C23   H8    S    
C14   C18   A    
C47   N3    A    
C103  H67   S    
C104  H65   S    
O16   V4    S    
O4    C8    A    
N15   H46   S    
C51   C55   A    
C44   H4    S    
C98   H51   S    
C86   N6    S    
C50   C54   A    
C97   H52   S    
C77   N17   S    
O1    V3    S    
O13   V1    S    
N14   H43   S    
O2    V4    S    
N9    H33   S    
O3    V1    S    
C16   H16   S    
C89   C93   A    
C28   C36   A    
C86   C90   A    
C79   C83   A    
C1    O15   A    
C56   C60   A    
C15   C31   A    
C76   C80   A    
C92   C96   A    
C2    O16   A    
C102  H59   S    
C16   C32   A    
O2    C6    A    
N16   H48   S    
C58   C62   A    
C10   C22   A    
C91   C95   A    
C48   O24   S    
C11   C19   A    
C66   C70   A    
C16   C20   A    
C43   H3    S    
C76   H24   S    
C13   C29   A    
C34   C37   A    
O11   C7    A    
C98   H49   S    
O15   V3    S    
C35   C36   A    
O12   C8    A    
C70   C99   S    
C14   H14   S    
N1    C49   A    
C100  H55   S    
C24   H7    S    
C13   H13   S    
C74   H22   S    
O10   V2    S    
C45   C61   A    
C90   N10   S    
C1    C84   S    
N10   H36   S    
C40   N16   S    
N2    C50   A    
O5    V1    S    
N13   H42   S    
C57   C61   A    
C39   C43   A    
C56   C68   A    
C91   N11   S    
C38   C42   A    
C62   C69   A    
C101  C102  S    
C26   C34   A    
C57   C58   A    
C48   N4    A    
C61   C70   A    
N8    H32   S    
O7    V3    S    
C72   C103  S    
C46   N2    A    
C104  H66   S    
C17   H10   S    
C45   N1    A    
C103  C104  S    
C99   C100  S    
C15   C19   A    
C19   H12   S    
C32   C44   A    
C38   N14   S    
O4    V2    S    
C73   C77   A    
C21   H6    S    
C103  H68   S    
O8    V4    S    
N5    H26   S    
O7    C3    A    
C104  H64   S    
N16   H47   S    
C47   O23   S    
N17   H69   S    
N11   H37   S    
C53   C65   A    
C75   H23   S    
N12   H40   S    
N19   H73   S    
C14   C30   A    
C92   N12   S    
C21   C25   A    
O8    C4    A    
C7    C10   S    
C55   C67   A    
C98   H50   S    
O9    C5    A    
C46   O22   S    
C26   C30   A    
N2    C93   S    
C45   O21   S    
C66   H18   S    
C73   H21   S    
C50   O26   S    
C52   O28   S    
C65   H17   S    
N19   H74   S    
C83   C87   A    
C39   N15   S    
C78   C82   A    
N8    H31   S    
C100  H56   S    
C97   H53   S    
C12   C20   A    
C27   C35   A    
O9    V1    S    
C74   C78   A    
C49   C53   A    
C60   C64   A    
C29   C41   A    
N10   H35   S    
C59   C63   A    
N9    H34   S    
C51   O27   S    
C77   C81   A    
C3    O13   A    
C99   H58   S    
C73   C93   A    
O6    V2    S    
C69   C97   S    
C20   H11   S    
C88   C92   A    
O5    C1    A    
N18   H72   S    
O6    C2    A    
C23   C27   A    
C68   C72   A    
O11   V3    S    
O18   V4    S    
C65   C69   A    
O12   V4    S    
C85   N5    S    
C22   C26   A    
C67   H19   S    
C37   N13   S    
C8    C9    S    
N14   H44   S    
C9    C17   A    
N6    H27   S    
O10   C6    A    
C80   C84   A    
C15   H15   S    
N3    C96   S    
N17   H70   S    
C101  H63   S    
C54   C58   A    
C67   C71   A    
N1    C94   S    
C101  H62   S    
C31   C43   A    
C102  H61   S    
C41   H1    S    
C87   C91   A    
C52   C56   A    
C75   C95   A    
C81   C85   A    
C76   C96   A    
O20   V2    S    
C78   N18   S    
C12   C24   A    
N4    C95   S    
C27   C31   A    
C2    C83   S    
C13   C17   A    
N20   H75   S    
C3    C82   S    
C85   C89   A    
C63   C72   A    
C68   H20   S    
C75   C79   A    
O14   V2    S    
N3    C51   A    
C48   C64   A    
C37   C41   A    
C24   C28   A    
C47   C63   A    
C42   H2    S    
N15   H45   S    
C18   H9    S    
C102  H60   S    
C97   C98   S    
C90   C94   A    
C4    O14   A    
C59   C60   A    
C88   N8    S    
C87   N7    S    
C30   C42   A    
C74   C94   A    
C22   H5    S    
C53   C57   A    
C28   C32   A    
N6    H28   S    
