data_str_m9_o16_o24_f0_sra.sym.54
_audit_creation_date              2012-12-11T15:13:46-0500
_audit_creation_method            fapswitch 2.2
_symmetry_space_group_name_H-M    P1
_symmetry_Int_Tables_number       1
_space_group_crystal_system       triclinic
_cell_length_a                    6.94441
_cell_length_b                    13.485574
_cell_length_c                    20.105234
_cell_angle_alpha                 104.102563
_cell_angle_beta                  90.305045
_cell_angle_gamma                 90.495861
_cell_volume                      1825.97342027

loop_
_atom_site_label
_atom_site_type_symbol
_atom_type_description
_atom_site_fract_x
_atom_site_fract_y
_atom_site_fract_z
_atom_type_partial_charge
O1    O     O_R   0.506780 0.600060 0.449950 -0.535973
O2    O     O_R   0.179840 0.597110 0.589410 -0.543540
O3    O     O_R   0.004570 0.399940 0.550050 -0.538856
C1    C     C_R   0.348821 0.618789 0.616984 0.676221
O4    O     O_R   0.177380 0.612160 0.452890 -0.542848
O5    O     O_R   0.002100 0.415100 0.412560 -0.539185
C2    C     C_R   0.346234 0.639325 0.436551 0.700842
O6    O     O_R   0.509250 0.584900 0.587440 -0.541047
O7    O     O_3   0.337570 0.435330 0.486930 -0.369006
V1    V     V_3+5 0.064650 0.512000 0.502430 1.411803
O8    O     O_R   0.672090 0.402890 0.410590 -0.542747
C3    C     C_R   0.840069 0.380927 0.383060 0.674645
O9    O     O_R   0.674540 0.387840 0.547110 -0.540840
C4    C     C_R   0.843222 0.360873 0.563533 0.695483
V2    V     V_3+5 0.564040 0.488000 0.497570 1.418774
O10   O     O_3   0.840990 0.564670 0.513070 -0.370144
C5    C     C_R   0.875335 0.106929 0.607837 -0.161944
H1    H     H_    0.868853 0.156413 0.514193 0.100956
H2    H     H_    0.886062 0.027058 0.581037 0.111967
C6    C     C_R   0.851793 0.283423 0.603019 -0.030510
C7    C     C_R   0.846001 0.319437 0.933065 -0.170049
C8    C     C_R   0.835535 0.396069 0.897951 -0.122279
C9    C     C_R   0.839566 0.371908 0.826527 -0.160678
C10   C     C_R   0.853919 0.269098 0.788018 0.078326
C11   C     C_R   0.864567 0.190841 0.824461 0.070324
C12   C     C_R   0.857604 0.241300 0.714731 0.072673
C13   C     C_R   0.871655 0.136312 0.679800 0.146021
C14   C     C_R   0.882065 0.061286 0.716747 -0.217180
C15   C     C_R   0.878657 0.087897 0.787861 -0.205014
C16   C     C_R   0.847890 0.313933 0.674616 -0.217314
C17   C     C_R   0.865492 0.180162 0.569683 -0.177855
C18   C     C_R   0.860512 0.217215 0.897080 -0.073381
H3    H     H_    0.837628 0.394829 0.697089 0.090346
H4    H     H_    0.842406 0.339861 0.988627 0.099681
H5    H     H_    0.830784 0.435688 0.803273 0.103079
H6    H     H_    0.823851 0.475062 0.926321 0.124747
H7    H     H_    0.887079 0.026631 0.813937 0.117010
C19   C     C_3   0.767142 0.160155 0.249653 -0.147196
C20   C     C_3   0.943269 0.204528 0.295300 -0.142871
H8    H     H_    0.014442 0.168243 0.332812 0.099921
H9    H     H_    0.693207 0.086487 0.248659 0.111203
C21   C     C_3   0.847997 0.310313 0.312494 -0.010536
C22   C     C_3   0.671720 0.266722 0.267671 -0.107351
C23   C     C_3   0.770559 0.293308 0.205220 -0.144974
C24   C     C_3   0.946804 0.337601 0.250804 -0.146496
C25   C     C_3   0.042049 0.231067 0.232807 -0.102332
C26   C     C_3   0.865687 0.187668 0.188006 -0.009999
H10   H     H_    0.518894 0.281747 0.282345 0.112371
H11   H     H_    0.699407 0.329079 0.167445 0.124764
H12   H     H_    0.022057 0.410895 0.251692 0.108597
H13   H     H_    0.194813 0.215914 0.218073 0.106967
C27   C     C_3   0.538328 0.724517 0.731224 -0.129261
C28   C     C_3   0.458860 0.834784 0.750204 -0.143049
H14   H     H_    0.543192 0.905331 0.750812 0.110890
H15   H     H_    0.688419 0.703373 0.715448 0.108455
C29   C     C_3   0.356365 0.811193 0.812428 -0.006119
C30   C     C_3   0.435922 0.701770 0.794274 -0.136885
C31   C     C_3   0.253769 0.665220 0.749938 -0.140617
C32   C     C_3   0.174324 0.775499 0.768919 -0.120534
C33   C     C_3   0.276707 0.798233 0.705867 -0.136865
C34   C     C_3   0.356304 0.688777 0.687689 -0.003458
H16   H     H_    0.500911 0.662374 0.831282 0.126112
H17   H     H_    0.169420 0.594704 0.749418 0.098837
H18   H     H_    0.211507 0.837730 0.668956 0.098776
C35   C     C_R   0.370425 0.893769 0.392103 -0.168370
H19   H     H_    0.372453 0.844408 0.485863 0.102990
H20   H     H_    0.358042 0.019291 0.309202 0.112255
H21   H     H_    0.374255 0.973956 0.418827 0.113637
C36   C     C_R   0.355309 0.716966 0.397096 -0.060207
C37   C     C_R   0.374105 0.679607 0.066163 0.381884
C38   C     C_R   0.406002 0.604386 0.101660 -0.268320
C39   C     C_R   0.416736 0.628775 0.173229 0.389972
C40   C     C_R   0.377618 0.730341 0.211875 -0.035718
C41   C     C_R   0.361130 0.808329 0.175326 -0.052522
C42   C     C_R   0.366268 0.758686 0.285258 0.096660
C43   C     C_R   0.366860 0.864008 0.320096 0.141774
C44   C     C_R   0.360627 0.938873 0.283015 -0.212837
C45   C     C_R   0.352425 0.911586 0.211939 -0.150336
C46   C     C_R   0.348120 0.686587 0.325524 -0.202656
C47   C     C_R   0.368382 0.820453 0.430366 -0.173332
C48   C     C_R   0.361048 0.782089 0.102634 -0.184548
H22   H     H_    0.320539 0.606684 0.303086 0.164452
H23   H     H_    0.433229 0.526685 0.073172 0.155387
H24   H     H_    0.342833 0.972825 0.185887 0.108937
O11   O     O_R   0.203580 0.914920 0.912610 -0.542748
O12   O     O_R   0.535710 0.887810 0.047120 -0.537312
O13   O     O_R   0.710730 0.084950 0.087430 -0.542146
C49   C     C_R   0.367136 0.861200 0.063900 0.781080
O14   O     O_R   0.533010 0.902850 0.910600 -0.541314
O15   O     O_R   0.708010 0.100090 0.949930 -0.539196
C50   C     C_R   0.363990 0.881111 0.883082 0.703433
O16   O     O_R   0.206300 0.899780 0.050100 -0.546060
O17   O     O_3   0.375170 0.064580 0.013100 -0.373911
V3    V     V_3+5 0.648200 0.988020 0.997570 1.431961
O18   O     O_R   0.038030 0.112330 0.952840 -0.540715
C51   C     C_R   0.869284 0.139211 0.936456 0.686849
O19   O     O_R   0.040730 0.097300 0.089360 -0.546178
C52   C     C_R   0.872962 0.118254 0.117153 0.676031
V4    V     V_3+5 0.148780 0.012220 0.002360 1.418877
O20   O     O_3   0.871930 0.935430 0.986900 -0.370370
H25   H     H_    0.024306 0.796814 0.784715 0.106074
H26   H     H_    0.892901 0.981179 0.690440 0.117714
O21   O     O_3   0.381937 0.654957 0.995291 -0.556558
C53   C     C_3   0.204560 0.610086 0.969028 -0.270935
H27   H     H_    0.082408 0.662515 0.987220 0.140690
H28   H     H_    0.180672 0.535616 0.982430 0.144170
H29   H     H_    0.207418 0.594908 0.912263 0.160498
O22   O     O_3   0.479118 0.553089 0.203432 -0.564438
C54   C     C_3   0.679346 0.565448 0.215376 -0.274805
H30   H     H_    0.720250 0.644897 0.243104 0.145670
H31   H     H_    0.759353 0.542559 0.166320 0.142807
H32   H     H_    0.723842 0.515031 0.248568 0.160874

loop_
_geom_bond_atom_site_label_1
_geom_bond_atom_site_label_2
_ccdc_geom_bond_type
C23   H11   S    
O17   V3    S    
C40   C41   A    
O18   C51   A    
H20   C44   S    
C1    O6    A    
C53   H28   S    
O19   C52   A    
O11   C50   A    
C30   H16   S    
C6    C16   A    
C28   H14   S    
C23   C24   S    
C12   C13   A    
C26   C52   S    
C14   C15   A    
C10   C12   A    
C27   C34   S    
C54   H31   S    
O5    C3    A    
C19   C20   S    
O12   C49   A    
V2    O10   S    
O13   V3    S    
O22   C54   S    
O14   V3    S    
C37   C48   A    
C3    C21   S    
O12   V3    S    
O8    V2    S    
C29   C50   S    
C49   O16   A    
C9    C10   A    
C37   C38   A    
O1    V2    S    
O14   C50   A    
C22   H10   S    
O17   V4    S    
C23   C26   S    
O13   C52   A    
C11   C18   A    
C32   C33   S    
C35   C47   A    
O9    C4    A    
C40   C42   A    
C53   H27   S    
O19   V4    S    
C28   C33   S    
O15   V3    S    
C20   C21   S    
C38   H23   S    
C11   C15   A    
C7    C18   A    
C32   H25   S    
C4    C6    S    
C10   C11   A    
C19   H9    S    
C54   H32   S    
C20   H8    S    
O4    C2    A    
C37   O21   S    
C7    H4    S    
C31   C32   S    
C44   C45   A    
C25   H13   S    
C33   C34   S    
C21   C24   S    
C5    C13   A    
O2    C1    A    
C42   C43   A    
C2    C36   S    
O11   V4    S    
C45   H24   S    
V4    O20   S    
V3    O20   S    
C35   H21   S    
C43   C44   A    
C35   C43   A    
C19   C26   S    
O3    C4    A    
C20   C25   S    
C18   C51   S    
C12   C16   A    
O6    V2    S    
C9    H5    S    
O9    V2    S    
C22   C23   S    
C5    C17   A    
C19   C22   S    
C24   C25   S    
C21   C22   S    
C41   C48   A    
O2    V1    S    
O21   C53   S    
C8    H6    S    
C27   C28   S    
O7    V1    S    
C28   C29   S    
C31   H17   S    
C29   C30   S    
C25   C26   S    
C16   H3    S    
O1    C2    A    
C39   C40   A    
O5    V1    S    
C46   H22   S    
O8    C3    A    
C27   H15   S    
O15   C51   A    
H19   C47   S    
C29   C32   S    
C33   H18   S    
O7    V2    S    
O4    V1    S    
O3    V1    S    
V1    O10   S    
C54   H30   S    
C30   C31   S    
C24   H12   S    
C31   C34   S    
C1    C34   S    
C5    H2    S    
O18   V4    S    
C39   O22   S    
C48   C49   S    
C36   C46   A    
C27   C30   S    
C14   H26   S    
C38   C39   A    
C41   C45   A    
C15   H7    S    
C13   C14   A    
C8    C9    A    
C36   C47   A    
H1    C17   S    
C7    C8    A    
C42   C46   A    
C53   H29   S    
O16   V4    S    
C6    C17   A    
