data_str_m2_o14_o29_f0_pcu.sym.260
_audit_creation_date              2012-12-10T17:25:22-0500
_audit_creation_method            fapswitch 2.2
_symmetry_space_group_name_H-M    P1
_symmetry_Int_Tables_number       1
_space_group_crystal_system       triclinic
_cell_length_a                    27.547293
_cell_length_b                    10.835114
_cell_length_c                    9.595452
_cell_angle_alpha                 90.372736
_cell_angle_beta                  89.638461
_cell_angle_gamma                 93.889601
_cell_volume                      2857.32500579

loop_
_atom_site_label
_atom_site_type_symbol
_atom_type_description
_atom_site_fract_x
_atom_site_fract_y
_atom_site_fract_z
_atom_type_partial_charge
C1    C     C_R   0.502294 0.262514 0.499546 0.805786
C2    C     C_R   0.275536 0.470694 0.611644 0.025072
C3    C     C_R   0.253970 0.541914 0.508178 0.318134
C4    C     C_R   0.102142 0.555892 0.465457 -0.106485
C5    C     C_R   0.124221 0.444169 0.439595 -0.128731
C6    C     C_R   0.094620 0.336931 0.406679 0.496243
C7    C     C_R   0.130039 0.657374 0.522571 0.023093
C8    C     C_R   0.354863 0.515856 0.503829 -0.014972
C9    C     C_R   0.647154 0.515046 0.493888 -0.080656
C10   C     C_R   0.974350 0.471805 0.350278 0.091224
C11   C     C_R   0.979857 0.687586 0.433700 -0.026313
C12   C     C_R   0.407527 0.502757 0.500771 0.784010
C13   C     C_R   0.951730 0.578860 0.393535 0.020030
C14   C     C_R   0.945993 0.380274 0.273396 -0.119281
C15   C     C_R   0.894639 0.374266 0.286343 -0.079854
C16   C     C_R   0.872258 0.467863 0.362437 -0.016217
C17   C     C_R   0.900492 0.576558 0.398210 -0.128503
C18   C     C_R   0.877483 0.682965 0.438786 -0.131134
C19   C     C_R   0.827227 0.672499 0.468329 0.532776
C20   C     C_R   0.822287 0.460687 0.397710 0.579224
C21   C     C_R   0.728425 0.526559 0.594787 -0.145454
C22   C     C_R   0.677920 0.504273 0.611272 -0.031426
C23   C     C_R   0.494422 0.736282 0.501614 0.793093
C24   C     C_R   0.668715 0.547233 0.364227 -0.215838
C25   C     C_R   0.719054 0.568124 0.348257 0.031832
C26   C     C_R   0.749052 0.555886 0.464568 0.259103
C27   C     C_R   0.024166 0.461862 0.382377 0.014563
C28   C     C_R   0.052004 0.565499 0.436911 0.052208
C29   C     C_R   0.029972 0.677863 0.465536 0.124759
C30   C     C_R   0.045434 0.347100 0.377192 -0.218815
C31   C     C_R   0.107126 0.763460 0.561788 -0.147258
C32   C     C_R   0.956200 0.801069 0.435255 -0.092480
C33   C     C_R   0.904841 0.797977 0.436130 0.419860
C34   C     C_R   0.592992 0.501912 0.499520 0.816500
C35   C     C_R   0.057692 0.771812 0.538149 -0.131727
C36   C     C_R   0.542079 0.118784 0.729880 -0.079039
C37   C     C_R   0.544302 0.060227 0.858189 -0.114673
C38   C     C_R   0.516841 0.949692 0.880446 -0.111342
C39   C     C_R   0.491184 0.890846 0.770641 0.459198
C40   C     C_R   0.497334 0.938540 0.632613 -0.018995
C41   C     C_R   0.514656 0.062843 0.619657 0.041999
C42   C     C_R   0.502564 0.127478 0.498965 -0.141070
C43   C     C_R   0.481819 0.062646 0.384786 -0.151929
C44   C     C_R   0.474169 0.933965 0.386560 -0.021433
C45   C     C_R   0.175088 0.442624 0.452880 0.641910
C46   C     C_R   0.486327 0.869796 0.508134 -0.208287
C47   C     C_R   0.565074 0.666092 0.143430 -0.214722
C48   C     C_R   0.597604 0.748618 0.072975 -0.086836
C49   C     C_R   0.598584 0.746429 0.926742 -0.063036
C50   C     C_R   0.564915 0.666498 0.856245 -0.123045
C51   C     C_R   0.531370 0.583310 0.925461 0.195823
C52   C     C_R   0.531742 0.582316 0.074302 0.118130
C53   C     C_R   0.469702 0.420100 0.076245 0.567904
C54   C     C_R   0.471935 0.414787 0.926826 -0.048650
C55   C     C_R   0.180179 0.649122 0.541980 0.662471
C56   C     C_R   0.283786 0.603843 0.405674 -0.011100
C57   C     C_R   0.334024 0.592162 0.407470 -0.329165
C58   C     C_R   0.325729 0.457432 0.607074 -0.314981
Cu1   Cu    Cu3+1 0.500000 0.499990 0.640660 0.968653
Cu2   Cu    Cu3+1 0.500000 0.500010 0.359340 0.970916
H1    H     H_    0.342236 0.401415 0.684559 0.127364
H2    H     H_    0.127271 0.839950 0.612803 0.170937
H3    H     H_    0.646170 0.557077 0.273630 0.194242
H4    H     H_    0.041508 0.851550 0.581575 0.134770
H5    H     H_    0.470270 0.113086 0.295035 0.227704
H6    H     H_    0.561975 0.207371 0.717626 0.208973
H7    H     H_    0.564861 0.104318 0.942771 0.193745
H8    H     H_    0.514904 0.910248 0.983738 0.194051
H9    H     H_    0.567172 0.671359 0.253551 0.198129
H10   H     H_    0.567023 0.670873 0.746287 0.223196
H11   H     H_    0.752330 0.516118 0.682661 0.152889
H12   H     H_    0.023817 0.262391 0.355175 0.152583
H13   H     H_    0.357086 0.642377 0.332407 0.130494
N1    N     N_R   0.201868 0.544671 0.501722 -0.429862
N2    N     N_R   0.800999 0.562474 0.447829 -0.485192
N3    N     N_R   0.500460 0.501210 0.147910 -0.241143
N4    N     N_R   0.500480 0.501290 0.852040 -0.236776
O1    O     O_R   0.500000 0.319640 0.618810 -0.592221
O2    O     O_2   0.795219 0.352670 0.385696 -0.479783
O3    O     O_2   0.207267 0.745279 0.597747 -0.546470
O4    O     O_2   0.804809 0.770720 0.518031 -0.482415
O5    O     O_R   0.500000 0.319660 0.381240 -0.526673
O6    O     O_R   0.430260 0.500010 0.618770 -0.611891
O7    O     O_R   0.430270 0.500030 0.381200 -0.561126
O8    O     O_R   0.500000 0.680340 0.618760 -0.548159
O9    O     O_R   0.500000 0.680360 0.381190 -0.623969
O10   O     O_R   0.569730 0.499970 0.618800 -0.561066
O11   O     O_R   0.569740 0.499990 0.381230 -0.603154
O12   O     O_2   0.197910 0.341148 0.415231 -0.496899
C59   C     C_2   0.264433 0.678499 0.291808 0.396235
H14   H     H_    0.289371 0.737590 0.229510 0.070170
O13   O     O_2   0.221310 0.672629 0.262405 -0.518864
C60   C     C_2   0.982762 0.923199 0.411023 0.308165
H15   H     H_    0.969067 0.006626 0.455183 0.101392
O14   O     O_2   0.018582 0.932501 0.335192 -0.533482
O15   O     O_3   0.882320 0.908130 0.421400 -0.588135
C61   C     C_3   0.860656 0.913720 0.287458 0.112147
H16   H     H_    0.837863 0.994326 0.288019 0.195619
H17   H     H_    0.835337 0.831986 0.264576 0.142268
C62   C     C_3   0.898585 0.930064 0.169497 -0.450259
H18   H     H_    0.923802 0.011930 0.191551 0.223906
H19   H     H_    0.920218 0.847342 0.162592 0.241877
C63   C     C_3   0.874308 0.946023 0.028783 -0.820337
H20   H     H_    0.850466 0.862336 0.002758 0.265859
H21   H     H_    0.902634 0.959393 0.946406 0.265496
H22   H     H_    0.852171 0.027898 0.030474 0.269400
C64   C     C_2   0.740202 0.602399 0.209781 0.413046
H23   H     H_    0.779174 0.620457 0.196881 0.067134
O16   O     O_2   0.714320 0.611487 0.107981 -0.578014
C65   C     C_2   0.247015 0.407471 0.725234 0.367331
H24   H     H_    0.262594 0.334069 0.782793 0.064367
O17   O     O_2   0.206652 0.437817 0.758427 -0.542420
O18   O     O_3   0.457828 0.793838 0.804176 -0.591437
C66   C     C_3   0.410253 0.827735 0.775448 0.096212
H25   H     H_    0.404423 0.831920 0.661019 0.125105
H26   H     H_    0.403556 0.919156 0.823542 0.175837
C67   C     C_3   0.373445 0.730472 0.835917 -0.371931
H27   H     H_    0.380904 0.638219 0.793299 0.239467
H28   H     H_    0.377276 0.728322 0.951127 0.230118
C68   C     C_3   0.321407 0.757760 0.799444 -0.820613
H29   H     H_    0.312561 0.848430 0.844062 0.262403
H30   H     H_    0.295604 0.684599 0.842906 0.269365
H31   H     H_    0.316779 0.759215 0.684550 0.270423
C69   C     C_2   0.448489 0.870523 0.267264 0.353396
H32   H     H_    0.433298 0.776033 0.276360 0.077648
O19   O     O_2   0.442304 0.924747 0.158306 -0.552049
O20   O     O_3   0.439922 0.337551 0.154120 -0.567090
C70   C     C_3   0.389253 0.337036 0.124225 0.091399
H33   H     H_    0.369831 0.309489 0.222199 0.181952
H34   H     H_    0.378637 0.262763 0.048171 0.171723
C71   C     C_3   0.370157 0.460620 0.076547 -0.498726
H35   H     H_    0.384293 0.537210 0.145055 0.238225
H36   H     H_    0.382430 0.481632 0.968657 0.189362
C72   C     C_3   0.314659 0.453547 0.077099 -0.815271
H37   H     H_    0.300423 0.380443 0.003800 0.248742
H38   H     H_    0.301708 0.543498 0.044032 0.257731
H39   H     H_    0.300175 0.431636 0.182877 0.278775
C73   C     C_2   0.628644 0.837058 0.158458 0.385522
H40   H     H_    0.637305 0.813531 0.264872 0.092948
O21   O     O_2   0.642577 0.939053 0.114933 -0.535588
C74   C     C_2   0.635645 0.821981 0.844810 0.416395
H41   H     H_    0.668986 0.859392 0.892878 0.154460
O22   O     O_2   0.629768 0.841643 0.721042 -0.561116
C75   C     C_2   0.445510 0.310348 0.854335 0.393250
H42   H     H_    0.423707 0.324802 0.763764 0.092303
O23   O     O_2   0.448132 0.204758 0.895914 -0.553189
O24   O     O_3   0.113758 0.221785 0.402119 -0.538661
C76   C     C_3   0.097085 0.150227 0.518418 0.080311
H43   H     H_    0.103422 0.052139 0.494713 0.201048
H44   H     H_    0.057207 0.153149 0.536849 0.112478
C77   C     C_3   0.125381 0.188668 0.650985 -0.362948
H45   H     H_    0.164747 0.176889 0.633991 0.259846
H46   H     H_    0.120714 0.287473 0.675501 0.239439
C78   C     C_3   0.107436 0.111742 0.775998 -0.821446
H47   H     H_    0.068285 0.123960 0.796062 0.260277
H48   H     H_    0.128432 0.142384 0.869890 0.288686
H49   H     H_    0.112538 0.012352 0.757285 0.243678
C79   C     C_2   0.660413 0.466256 0.751660 0.399312
H50   H     H_    0.677571 0.508963 0.843127 0.116596
O25   O     O_2   0.629471 0.381451 0.767238 -0.534727
C80   C     C_2   0.865116 0.280030 0.204856 0.456447
H51   H     H_    0.874139 0.184723 0.206382 0.027056
O26   O     O_2   0.831866 0.309545 0.131202 -0.493855
C81   C     C_2   0.968558 0.308180 0.159738 0.369164
H52   H     H_    0.952512 0.218873 0.126825 0.050879
O27   O     O_2   0.004708 0.350739 0.097728 -0.495579

loop_
_geom_bond_atom_site_label_1
_geom_bond_atom_site_label_2
_ccdc_geom_bond_type
C10   C27   A    
C54   C75   S    
C21   C26   A    
C70   C71   S    
C60   H15   S    
C6    O24   S    
C11   C13   A    
C41   C42   A    
O24   C76   S    
C76   C77   S    
C7    C55   A    
C71   C72   S    
C70   H33   S    
Cu1   N4    S    
C72   H39   S    
C51   N4    A    
C66   H25   S    
Cu2   O11   S    
C53   C54   A    
C40   C46   A    
C28   C29   A    
C21   H11   S    
C81   H52   S    
C76   H44   S    
C67   H28   S    
C5    C6    A    
C36   H6    S    
C9    C22   A    
C15   C16   A    
C61   H16   S    
C56   C57   A    
C12   O7    A    
C17   C18   A    
C18   C19   A    
C77   C78   S    
C57   H13   S    
C3    N1    S    
C65   H24   S    
C47   H9    S    
C53   O20   S    
C8    C58   A    
C55   N1    A    
Cu2   O5    S    
C2    C65   S    
C44   C46   A    
C16   C17   A    
C39   O18   S    
C23   O9    A    
C49   C74   S    
C77   H45   S    
C35   H4    S    
C8    C12   S    
C45   O12   S    
C78   H48   S    
C68   H31   S    
C43   H5    S    
C54   N4    A    
C58   H1    S    
C56   C59   S    
C32   C60   S    
Cu1   Cu2   S    
C60   O14   D    
C23   C46   S    
C21   C22   A    
C27   C30   A    
C79   O25   D    
C1    O1    A    
C64   O16   D    
C31   H2    S    
C36   C41   A    
C4    C7    A    
Cu1   O1    S    
C80   O26   D    
C68   H30   S    
C80   H51   S    
Cu1   O10   S    
C59   O13   D    
C7    C31   A    
C51   C52   A    
C24   C25   A    
C78   H49   S    
C75   O23   D    
C61   H17   S    
C67   C68   S    
C39   C40   A    
Cu2   O9    S    
C75   H42   S    
C72   H38   S    
C22   C79   S    
C52   N3    A    
C1    O5    A    
C5    C45   A    
C44   C69   S    
C62   C63   S    
C20   N2    A    
C45   N1    A    
C74   O22   D    
C79   H50   S    
C43   C44   A    
Cu1   O8    S    
C37   C38   A    
C8    C57   A    
C3    C56   A    
C66   H26   S    
C47   C48   A    
C16   C20   A    
O15   C61   S    
C62   H19   S    
C50   C51   A    
C63   H21   S    
C34   O11   A    
C76   H43   S    
C78   H47   S    
C47   C52   A    
C73   O21   D    
C40   C41   A    
C6    C30   A    
C38   H8    S    
C11   C32   A    
C24   H3    S    
C74   H41   S    
C10   C14   A    
C9    C34   S    
C31   C35   A    
C53   N3    A    
C42   C43   A    
C64   H23   S    
O20   C70   S    
C33   O15   S    
C63   H20   S    
C61   C62   S    
C68   H29   S    
C25   C64   S    
C69   O19   D    
O18   C66   S    
C4    C28   A    
C36   C37   A    
C20   O2    S    
C15   C80   S    
C12   O6    A    
Cu1   O6    S    
C4    C5    A    
C71   H36   S    
C10   C13   A    
C70   H34   S    
C30   H12   S    
C2    C58   A    
C9    C24   A    
C72   H37   S    
C48   C73   S    
C29   C35   A    
C13   C17   A    
C32   C33   A    
C19   N2    A    
C2    C3    A    
C25   C26   A    
C67   H27   S    
C55   O3    S    
Cu2   O7    S    
C59   H14   S    
C38   C39   A    
C48   C49   A    
C37   H7    S    
C81   O27   D    
C62   H18   S    
Cu2   N3    S    
C63   H22   S    
C34   O10   A    
C77   H46   S    
C50   H10   S    
C18   C33   A    
C65   O17   D    
C66   C67   S    
C73   H40   S    
C1    C42   S    
C11   C29   A    
C26   N2    S    
C49   C50   A    
C23   O8    A    
C27   C28   A    
C14   C15   A    
C19   O4    S    
C14   C81   S    
C71   H35   S    
C69   H32   S    
