data_str_m2_o40_o41_f0_fof.sym.58
_audit_creation_date              2012-10-26T17:12:49-0400
_audit_creation_method            fapswitch 2.2
_symmetry_space_group_name_H-M    P1
_symmetry_Int_Tables_number       1
_space_group_crystal_system       triclinic
_cell_length_a                    27.945993
_cell_length_b                    18.696801
_cell_length_c                    16.640592
_cell_angle_alpha                 90.146151
_cell_angle_beta                  62.967231
_cell_angle_gamma                 90.303775
_cell_volume                      7744.68486674

loop_
_atom_site_label
_atom_site_type_symbol
_atom_type_description
_atom_site_fract_x
_atom_site_fract_y
_atom_site_fract_z
_atom_type_partial_charge
C1    C     C_R   0.296461 0.731991 0.328083 0.804106
C2    C     C_R   0.703349 0.267705 0.671943 0.844864
C3    C     C_R   0.702895 0.733399 0.672263 0.812972
C4    C     C_R   0.296394 0.268039 0.327929 0.845860
C5    C     C_R   0.796461 0.231991 0.328083 0.804106
C6    C     C_R   0.203349 0.767705 0.671943 0.844864
C7    C     C_R   0.202895 0.233399 0.672263 0.812975
C8    C     C_R   0.796394 0.768039 0.327929 0.845864
C9    C     C_R   0.403014 0.999574 0.485285 0.070626
C10   C     C_R   0.597352 0.000330 0.513525 0.070413
C11   C     C_R   0.903014 0.499574 0.485285 0.070626
C12   C     C_R   0.097352 0.500330 0.513525 0.070413
C13   C     C_R   0.616904 0.881643 0.446704 -0.234856
C14   C     C_R   0.383498 0.118223 0.552158 -0.235961
C15   C     C_R   0.422450 0.879227 0.423198 -0.237719
C16   C     C_R   0.577794 0.120566 0.575934 -0.238869
C17   C     C_R   0.116904 0.381643 0.446704 -0.234856
C18   C     C_R   0.883498 0.618223 0.552158 -0.235961
C19   C     C_R   0.922450 0.379227 0.423198 -0.237720
C20   C     C_R   0.077794 0.620566 0.575934 -0.238868
C21   C     C_R   0.213806 0.755755 0.960500 -0.023458
C22   C     C_R   0.780579 0.234768 0.044347 -0.022120
C23   C     C_R   0.764766 0.793421 0.061441 -0.020525
C24   C     C_R   0.203109 0.263812 0.970111 -0.023209
C25   C     C_R   0.713806 0.255755 0.960500 -0.023459
C26   C     C_R   0.280579 0.734768 0.044347 -0.022120
C27   C     C_R   0.264767 0.293421 0.061441 -0.020525
C28   C     C_R   0.703108 0.763813 0.970112 -0.023209
C29   C     C_R   0.259856 0.712456 0.918400 0.034863
C30   C     C_R   0.734173 0.277368 0.086783 -0.008905
C31   C     C_R   0.724836 0.739729 0.093577 0.035713
C32   C     C_R   0.244110 0.316146 0.935640 -0.004049
C33   C     C_R   0.759856 0.212456 0.918401 0.034863
C34   C     C_R   0.234173 0.777368 0.086783 -0.008905
C35   C     C_R   0.224837 0.239728 0.093576 0.035714
C36   C     C_R   0.744109 0.816147 0.935642 -0.004050
C37   C     C_R   0.295649 0.706180 0.957188 0.079038
C38   C     C_R   0.698071 0.283015 0.048422 0.028250
C39   C     C_R   0.688923 0.733012 0.055452 0.073106
C40   C     C_R   0.270339 0.337806 0.988379 0.027084
C41   C     C_R   0.795649 0.206179 0.957188 0.079038
C42   C     C_R   0.198071 0.783015 0.048422 0.028250
C43   C     C_R   0.188924 0.233012 0.055451 0.073106
C44   C     C_R   0.770339 0.837807 0.988380 0.027085
C45   C     C_R   0.137252 0.815004 0.955106 0.022282
C46   C     C_R   0.859540 0.180304 0.046933 0.052553
C47   C     C_R   0.837051 0.858813 0.074343 0.018313
C48   C     C_R   0.132548 0.192901 0.958034 0.050742
C49   C     C_R   0.637252 0.315004 0.955106 0.022282
C50   C     C_R   0.359540 0.680304 0.046933 0.052553
C51   C     C_R   0.337050 0.358814 0.074343 0.018312
C52   C     C_R   0.632548 0.692901 0.958034 0.050742
C53   C     C_R   0.113723 0.843596 0.901664 -0.111753
C54   C     C_R   0.885081 0.154939 0.098888 -0.104102
C55   C     C_R   0.874034 0.863889 0.110989 -0.104991
C56   C     C_R   0.111966 0.159589 0.902781 -0.110378
C57   C     C_R   0.613723 0.343596 0.901664 -0.111752
C58   C     C_R   0.385081 0.654939 0.098888 -0.104101
C59   C     C_R   0.374033 0.363889 0.110989 -0.104990
C60   C     C_R   0.611966 0.659589 0.902781 -0.110378
C61   C     C_R   0.135070 0.824298 0.810745 -0.284095
C62   C     C_R   0.864855 0.176016 0.189004 -0.270398
C63   C     C_R   0.862897 0.827730 0.190726 -0.283410
C64   C     C_R   0.134509 0.177413 0.811354 -0.268866
C65   C     C_R   0.635070 0.324298 0.810745 -0.284095
C66   C     C_R   0.364855 0.676016 0.189004 -0.270397
C67   C     C_R   0.362897 0.327731 0.190726 -0.283409
C68   C     C_R   0.634509 0.677413 0.811354 -0.268865
C69   C     C_R   0.177489 0.775763 0.771718 -0.123728
C70   C     C_R   0.821703 0.223414 0.228415 -0.138143
C71   C     C_R   0.819031 0.781494 0.229570 -0.120439
C72   C     C_R   0.175837 0.228105 0.772765 -0.132977
C73   C     C_R   0.677489 0.275763 0.771718 -0.123728
C74   C     C_R   0.321703 0.723414 0.228415 -0.138143
C75   C     C_R   0.319031 0.281494 0.229570 -0.120445
C76   C     C_R   0.675837 0.728105 0.772765 -0.132977
C77   C     C_R   0.198591 0.743943 0.826784 0.041185
C78   C     C_R   0.798634 0.252344 0.174535 -0.009814
C79   C     C_R   0.792197 0.760279 0.177852 0.038449
C80   C     C_R   0.194183 0.265144 0.829405 -0.018025
C81   C     C_R   0.698591 0.243943 0.826784 0.041186
C82   C     C_R   0.298634 0.752344 0.174535 -0.009814
C83   C     C_R   0.292197 0.260279 0.177852 0.038454
C84   C     C_R   0.694182 0.765145 0.829406 -0.018025
C85   C     C_R   0.196588 0.631760 0.528074 0.820874
C86   C     C_R   0.803474 0.368200 0.471669 0.798292
C87   C     C_R   0.799406 0.630866 0.486017 0.820013
C88   C     C_R   0.200705 0.369112 0.513635 0.806008
C89   C     C_R   0.696588 0.131760 0.528074 0.820874
C90   C     C_R   0.303474 0.868200 0.471669 0.798292
C91   C     C_R   0.299406 0.130866 0.486017 0.820012
C92   C     C_R   0.700705 0.869112 0.513635 0.806006
C93   C     C_R   0.183318 0.771917 0.913916 0.023009
C94   C     C_R   0.812662 0.221848 0.089013 0.037348
C95   C     C_R   0.798202 0.803855 0.104183 0.019559
C96   C     C_R   0.176761 0.240465 0.918814 0.037106
C97   C     C_R   0.683318 0.271917 0.913916 0.023009
C98   C     C_R   0.312662 0.721848 0.089013 0.037348
C99   C     C_R   0.298202 0.303855 0.104183 0.019559
C100  C     C_R   0.676760 0.740465 0.918814 0.037107
C101  C     C_R   0.115392 0.824345 0.049266 -0.160924
C102  C     C_R   0.879944 0.168938 0.953338 -0.235324
C103  C     C_R   0.834956 0.910018 0.014267 -0.162177
C104  C     C_R   0.109816 0.182591 0.052204 -0.239358
C105  C     C_R   0.615392 0.324345 0.049266 -0.160923
C106  C     C_R   0.379944 0.668938 0.953338 -0.235324
C107  C     C_R   0.334956 0.410019 0.014268 -0.162177
C108  C     C_R   0.609815 0.682591 0.052205 -0.239358
C109  C     C_R   0.144873 0.809684 0.096047 0.132616
C110  C     C_R   0.848650 0.180013 0.908797 0.137070
C111  C     C_R   0.801367 0.901651 0.973347 0.138786
C112  C     C_R   0.138413 0.199110 0.100106 0.132515
C113  C     C_R   0.644873 0.309684 0.096047 0.132616
C114  C     C_R   0.348651 0.680013 0.908797 0.137071
C115  C     C_R   0.301367 0.401651 0.973347 0.138786
C116  C     C_R   0.638412 0.699110 0.100107 0.132515
C117  C     C_R   0.233005 0.683671 0.800957 0.256964
C118  C     C_R   0.763661 0.312169 0.199793 0.289086
C119  C     C_R   0.759547 0.698106 0.196461 0.251014
C120  C     C_R   0.229145 0.325564 0.801189 0.272746
C121  C     C_R   0.733005 0.183671 0.800957 0.256964
C122  C     C_R   0.263661 0.812170 0.199793 0.289086
C123  C     C_R   0.259548 0.198106 0.196460 0.251014
C124  C     C_R   0.729144 0.825565 0.801189 0.272745
C125  C     C_R   0.264956 0.670831 0.844280 -0.228123
C126  C     C_R   0.730171 0.321535 0.158155 -0.239734
C127  C     C_R   0.725033 0.690220 0.156942 -0.241570
C128  C     C_R   0.257645 0.344220 0.849659 -0.250771
C129  C     C_R   0.764956 0.170831 0.844280 -0.228125
C130  C     C_R   0.230171 0.821535 0.158155 -0.239733
C131  C     C_R   0.225034 0.190220 0.156941 -0.241572
C132  C     C_R   0.757643 0.844221 0.849661 -0.250771
C133  C     C_R   0.922850 0.908495 0.069703 0.817160
C134  C     C_R   0.071785 0.100290 0.935414 0.812669
C135  C     C_R   0.072153 0.900420 0.935076 0.826241
C136  C     C_R   0.927488 0.099184 0.065165 0.793482
C137  C     C_R   0.422850 0.408495 0.069703 0.817161
C138  C     C_R   0.571785 0.600290 0.935414 0.812670
C139  C     C_R   0.572153 0.400421 0.935076 0.826241
C140  C     C_R   0.427488 0.599184 0.065165 0.793481
C141  C     C_R   0.028588 0.619436 0.572424 0.103833
C142  C     C_R   0.971773 0.380430 0.426380 0.107040
C143  C     C_R   0.931131 0.618215 0.560469 0.100384
C144  C     C_R   0.069326 0.381701 0.438151 0.098395
C145  C     C_R   0.528588 0.119436 0.572424 0.103832
C146  C     C_R   0.471774 0.880430 0.426380 0.107040
C147  C     C_R   0.431131 0.118215 0.560469 0.100384
C148  C     C_R   0.569326 0.881701 0.438151 0.098395
C149  C     C_R   0.993088 0.677311 0.605113 -0.198909
C150  C     C_R   0.007302 0.322570 0.393633 -0.201820
C151  C     C_R   0.944653 0.676560 0.599582 -0.195645
C152  C     C_R   0.055801 0.323365 0.399008 -0.194303
C153  C     C_R   0.493088 0.177311 0.605113 -0.198909
C154  C     C_R   0.507302 0.822570 0.393633 -0.201820
C155  C     C_R   0.444653 0.176560 0.599582 -0.195646
C156  C     C_R   0.555801 0.823365 0.399008 -0.194302
C157  C     C_R   0.965971 0.559423 0.528757 0.031223
C158  C     C_R   0.034487 0.440510 0.469804 0.030866
C159  C     C_R   0.014635 0.559819 0.535333 0.029672
C160  C     C_R   0.985798 0.440102 0.463276 0.029264
C161  C     C_R   0.465971 0.059423 0.528756 0.031223
C162  C     C_R   0.534487 0.940510 0.469804 0.030866
C163  C     C_R   0.514635 0.059819 0.535333 0.029672
C164  C     C_R   0.485798 0.940102 0.463276 0.029264
C165  C     C_R   0.451574 0.999677 0.492468 -0.048724
C166  C     C_R   0.548856 0.000247 0.506155 -0.048994
C167  C     C_R   0.951574 0.499677 0.492468 -0.048724
C168  C     C_R   0.048856 0.500247 0.506155 -0.048994
C169  C     C_R   0.386382 0.937200 0.456246 0.051475
C170  C     C_R   0.613889 0.062661 0.542818 0.051272
C171  C     C_R   0.629672 0.938396 0.490340 0.046225
C172  C     C_R   0.370675 0.061503 0.508584 0.045391
C173  C     C_R   0.886382 0.437200 0.456246 0.051475
C174  C     C_R   0.113889 0.562661 0.542818 0.051272
C175  C     C_R   0.129672 0.438396 0.490340 0.046225
C176  C     C_R   0.870675 0.561502 0.508584 0.045391
C177  C     C_R   0.334050 0.935452 0.461526 -0.114910
C178  C     C_R   0.666166 0.064463 0.537684 -0.118580
C179  C     C_R   0.673974 0.936307 0.510780 -0.105975
C180  C     C_R   0.326293 0.063639 0.488350 -0.109517
C181  C     C_R   0.834050 0.435452 0.461526 -0.114910
C182  C     C_R   0.166166 0.564463 0.537685 -0.118580
C183  C     C_R   0.173974 0.436307 0.510781 -0.105975
C184  C     C_R   0.826293 0.563639 0.488350 -0.109517
C185  C     C_R   0.307229 0.999840 0.469608 -0.281087
C186  C     C_R   0.693086 0.000140 0.529300 -0.288500
C187  C     C_R   0.807229 0.499840 0.469608 -0.281087
C188  C     C_R   0.193086 0.500140 0.529300 -0.288500
Cu1   Cu    Cu3+1 0.209920 0.785290 0.495070 0.921836
Cu2   Cu    Cu3+1 0.790080 0.214710 0.504930 0.946149
Cu3   Cu    Cu3+1 0.790080 0.785290 0.504930 0.945889
Cu4   Cu    Cu3+1 0.209920 0.214710 0.495070 0.937046
Cu5   Cu    Cu3+1 0.709920 0.285290 0.495070 0.921836
Cu6   Cu    Cu3+1 0.290080 0.714710 0.504930 0.946149
Cu7   Cu    Cu3+1 0.290080 0.285290 0.504930 0.945886
Cu8   Cu    Cu3+1 0.709920 0.714710 0.495070 0.937043
Cu9   Cu    Cu3+1 0.495240 0.500000 0.924150 0.923871
Cu10  Cu    Cu3+1 0.504760 0.500000 0.075850 0.925788
Cu11  Cu    Cu3+1 0.995240 1.000000 0.924150 0.923871
Cu12  Cu    Cu3+1 0.004760 0.000000 0.075850 0.925789
H1    H     H_    0.582354 0.777790 0.373844 0.152823
H2    H     H_    0.418109 0.222142 0.624736 0.138958
H3    H     H_    0.497385 0.776423 0.364486 0.131539
H4    H     H_    0.502939 0.223415 0.634429 0.138412
H5    H     H_    0.082354 0.277790 0.373844 0.152823
H6    H     H_    0.918109 0.722143 0.624736 0.138958
H7    H     H_    0.997385 0.276423 0.364487 0.131539
H8    H     H_    0.002939 0.723415 0.634429 0.138412
H9    H     H_    0.269993 0.999934 0.464331 0.183185
H10   H     H_    0.730400 0.000135 0.534276 0.183751
H11   H     H_    0.769993 0.499934 0.464331 0.183185
H12   H     H_    0.230400 0.500135 0.534277 0.183751
H13   H     H_    0.644359 0.837996 0.415714 0.172551
H14   H     H_    0.356023 0.161788 0.583416 0.171514
H15   H     H_    0.413584 0.833872 0.391653 0.158583
H16   H     H_    0.586538 0.165813 0.607794 0.160547
H17   H     H_    0.144359 0.337996 0.415714 0.172551
H18   H     H_    0.856023 0.661787 0.583416 0.171514
H19   H     H_    0.913584 0.333872 0.391653 0.158584
H20   H     H_    0.086538 0.665813 0.607794 0.160546
H21   H     H_    0.119387 0.849196 0.768949 0.189731
H22   H     H_    0.881990 0.153359 0.229962 0.187268
H23   H     H_    0.887052 0.838324 0.225214 0.189558
H24   H     H_    0.120943 0.149081 0.768537 0.188612
H25   H     H_    0.619387 0.349196 0.768949 0.189731
H26   H     H_    0.381990 0.653359 0.229962 0.187268
H27   H     H_    0.387052 0.338325 0.225215 0.189558
H28   H     H_    0.620943 0.649081 0.768536 0.188611
H29   H     H_    0.073915 0.838683 0.089808 0.188052
H30   H     H_    0.921428 0.155848 0.911031 0.177731
H31   H     H_    0.856295 0.960297 0.003568 0.181809
H32   H     H_    0.069259 0.163690 0.091423 0.175323
H33   H     H_    0.573915 0.338683 0.089809 0.188051
H34   H     H_    0.421428 0.655848 0.911031 0.177731
H35   H     H_    0.356294 0.460298 0.003569 0.181809
H36   H     H_    0.569259 0.663690 0.091423 0.175323
H37   H     H_    0.290786 0.624529 0.823723 0.166187
H38   H     H_    0.704493 0.367609 0.175523 0.154528
H39   H     H_    0.701116 0.641895 0.171337 0.162454
H40   H     H_    0.290931 0.380446 0.818935 0.155112
H41   H     H_    0.790786 0.124529 0.823723 0.166186
H42   H     H_    0.204493 0.867609 0.175523 0.154528
H43   H     H_    0.201117 0.141894 0.171336 0.162452
H44   H     H_    0.790929 0.880448 0.818938 0.155116
O1    O     O_R   0.255040 0.869590 0.478480 -0.587755
O2    O     O_R   0.744960 0.130410 0.521520 -0.575373
O3    O     O_R   0.744960 0.869590 0.521520 -0.578387
O4    O     O_R   0.255040 0.130410 0.478480 -0.581128
O5    O     O_R   0.755040 0.369590 0.478480 -0.587755
O6    O     O_R   0.244960 0.630410 0.521520 -0.575374
O7    O     O_R   0.244960 0.369590 0.521520 -0.578387
O8    O     O_R   0.755040 0.630410 0.478480 -0.581129
O9    O     O_R   0.182050 0.796550 0.624440 -0.598214
O10   O     O_R   0.817950 0.203450 0.375560 -0.590724
O11   O     O_R   0.817950 0.796550 0.375560 -0.589798
O12   O     O_R   0.182050 0.203450 0.624440 -0.589332
O13   O     O_R   0.682050 0.296550 0.624440 -0.598214
O14   O     O_R   0.317950 0.703450 0.375560 -0.590724
O15   O     O_R   0.317950 0.296550 0.375560 -0.589798
O16   O     O_R   0.682050 0.703450 0.624440 -0.589332
O17   O     O_R   0.250530 0.763330 0.367210 -0.565828
O18   O     O_R   0.749470 0.236670 0.632790 -0.547416
O19   O     O_R   0.749470 0.763330 0.632790 -0.558310
O20   O     O_R   0.250530 0.236670 0.367210 -0.564822
O21   O     O_R   0.750530 0.263330 0.367210 -0.565828
O22   O     O_R   0.249470 0.736670 0.632790 -0.547417
O23   O     O_R   0.249470 0.263330 0.632790 -0.558310
O24   O     O_R   0.750530 0.736670 0.367210 -0.564825
O25   O     O_R   0.177260 0.690030 0.513710 -0.590916
O26   O     O_R   0.822740 0.309970 0.486290 -0.587726
O27   O     O_R   0.822740 0.690030 0.486290 -0.595167
O28   O     O_R   0.177260 0.309970 0.513710 -0.598566
O29   O     O_R   0.677260 0.190030 0.513710 -0.590916
O30   O     O_R   0.322740 0.809970 0.486290 -0.587726
O31   O     O_R   0.322740 0.190030 0.486290 -0.595168
O32   O     O_R   0.677260 0.809970 0.513710 -0.598566
O33   O     O_R   0.051640 0.926880 0.885090 -0.579532
O34   O     O_R   0.948360 0.073120 0.114910 -0.591738
O35   O     O_R   0.948360 0.926880 0.114910 -0.586848
O36   O     O_R   0.051640 0.073120 0.885090 -0.586834
O37   O     O_R   0.551640 0.426880 0.885090 -0.579532
O38   O     O_R   0.448360 0.573120 0.114910 -0.591738
O39   O     O_R   0.448360 0.426880 0.114910 -0.586848
O40   O     O_R   0.551640 0.573120 0.885090 -0.586834
O41   O     O_R   0.940620 0.926560 0.986760 -0.594629
O42   O     O_R   0.059380 0.073440 0.013240 -0.594269
O43   O     O_R   0.059380 0.926560 0.013240 -0.595245
O44   O     O_R   0.940620 0.073440 0.986760 -0.608277
O45   O     O_R   0.440620 0.426560 0.986760 -0.594628
O46   O     O_R   0.559380 0.573440 0.013240 -0.594269
O47   O     O_R   0.559380 0.426560 0.013240 -0.595245
O48   O     O_R   0.440620 0.573440 0.986760 -0.608277
N1    N     N_3   0.116170 0.811868 0.192832 -0.606365
H45   H     H_    0.131179 0.774413 0.221996 0.238364
H46   H     H_    0.118217 0.863522 0.215154 0.207127
N2    N     N_3   0.873493 0.171960 0.812597 -0.609455
H47   H     H_    0.887818 0.119611 0.796975 0.208437
H48   H     H_    0.906475 0.206704 0.784497 0.224640
N3    N     N_3   0.792942 0.964341 0.931696 -0.609095
H49   H     H_    0.823480 0.968629 0.865559 0.202275
H50   H     H_    0.754966 0.964104 0.933935 0.232270
N4    N     N_3   0.113410 0.187822 0.195788 -0.616453
H51   H     H_    0.103152 0.133673 0.208078 0.207567
H52   H     H_    0.077834 0.217294 0.224552 0.216088
N5    N     N_3   0.616170 0.311868 0.192832 -0.606365
H53   H     H_    0.631179 0.274413 0.221996 0.238364
H54   H     H_    0.618217 0.363522 0.215154 0.207127
N6    N     N_3   0.373493 0.671960 0.812597 -0.609455
H55   H     H_    0.387819 0.619612 0.796975 0.208437
H56   H     H_    0.406475 0.706704 0.784497 0.224639
N7    N     N_3   0.292943 0.464340 0.931692 -0.609093
H57   H     H_    0.323482 0.468625 0.865555 0.202273
H58   H     H_    0.254968 0.464102 0.933929 0.232269
N8    N     N_3   0.613409 0.687823 0.195788 -0.616454
H59   H     H_    0.603152 0.633673 0.208078 0.207567
H60   H     H_    0.577833 0.717294 0.224552 0.216088
N9    N     N_2   0.231746 0.631500 0.739196 -0.400343
H61   H     H_    0.264568 0.598080 0.712244 0.242558
C189  C     C_3   0.181216 0.593693 0.768729 -0.709268
H62   H     H_    0.183751 0.556392 0.714950 0.226765
H63   H     H_    0.147936 0.631545 0.782323 0.227531
H64   H     H_    0.172242 0.562426 0.830715 0.227831
N10   N     N_2   0.770376 0.369671 0.250946 -0.418038
H65   H     H_    0.801953 0.367409 0.266848 0.238387
C190  C     C_3   0.723970 0.410673 0.311227 -0.627959
H66   H     H_    0.734771 0.445169 0.354984 0.217119
H67   H     H_    0.690596 0.374451 0.354660 0.230833
H68   H     H_    0.710771 0.446520 0.272167 0.197851
N11   N     N_2   0.764085 0.640281 0.248394 -0.401082
H69   H     H_    0.731125 0.606638 0.275419 0.242685
C191  C     C_3   0.814177 0.601500 0.206377 -0.678686
H70   H     H_    0.814585 0.559759 0.253448 0.228917
H71   H     H_    0.848840 0.637918 0.190392 0.228698
H72   H     H_    0.818436 0.575185 0.143520 0.226735
N12   N     N_2   0.229630 0.372180 0.732482 -0.383939
H73   H     H_    0.192878 0.378770 0.732907 0.238355
C192  C     C_3   0.264204 0.434648 0.704397 -0.684570
H74   H     H_    0.259325 0.462787 0.649981 0.228358
H75   H     H_    0.306932 0.418489 0.676888 0.219709
H76   H     H_    0.253395 0.471896 0.762075 0.211901
N13   N     N_2   0.731745 0.131500 0.739197 -0.400343
H77   H     H_    0.764568 0.098079 0.712245 0.242558
C193  C     C_3   0.681215 0.093694 0.768728 -0.709266
H78   H     H_    0.683750 0.056392 0.714949 0.226765
H79   H     H_    0.647936 0.131547 0.782320 0.227530
H80   H     H_    0.672240 0.062429 0.830715 0.227830
N14   N     N_2   0.270376 0.869671 0.250946 -0.418037
H81   H     H_    0.301953 0.867409 0.266848 0.238387
C194  C     C_3   0.223970 0.910673 0.311227 -0.627961
H82   H     H_    0.234771 0.945168 0.354985 0.217119
H83   H     H_    0.190596 0.874451 0.354660 0.230834
H84   H     H_    0.210771 0.946519 0.272168 0.197851
N15   N     N_2   0.264085 0.140281 0.248393 -0.401080
H85   H     H_    0.231127 0.106634 0.275412 0.242682
C195  C     C_3   0.314181 0.101505 0.206383 -0.678676
H86   H     H_    0.314584 0.059757 0.253449 0.228913
H87   H     H_    0.348840 0.137924 0.190417 0.228693
H88   H     H_    0.318449 0.075199 0.143514 0.226734
N16   N     N_2   0.729630 0.872180 0.732482 -0.383935
H89   H     H_    0.692878 0.878768 0.732904 0.238357
C196  C     C_3   0.764201 0.934651 0.704401 -0.684577
H90   H     H_    0.759323 0.962789 0.649983 0.228358
H91   H     H_    0.806930 0.918496 0.676895 0.219709
H92   H     H_    0.753389 0.971898 0.762081 0.211904

loop_
_geom_bond_atom_site_label_1
_geom_bond_atom_site_label_2
_ccdc_geom_bond_type
C5    O21   A    
C85   C182  S    
Cu3   O3    S    
C9    C169  A    
C34   C42   A    
C139  O47   A    
C154  H3    S    
C181  C187  A    
C27   C99   A    
C170  C178  A    
Cu1   O25   S    
C42   C109  A    
C24   C96   A    
C62   C70   A    
C13   H13   S    
Cu3   Cu8   S    
C116  N8    S    
Cu1   Cu6   S    
Cu4   O12   S    
C112  N4    S    
C92   O32   A    
C155  H2    S    
C147  C155  A    
C143  C151  A    
C90   C177  S    
Cu11  Cu12  S    
C89   O29   A    
C82   C98   A    
C76   C84   A    
C73   C81   A    
C161  C163  A    
C192  H74   S    
C162  C164  A    
Cu11  O41   S    
C196  H92   S    
Cu6   O30   S    
C50   C98   A    
C139  O37   A    
N10   H65   S    
C84   C100  A    
Cu4   Cu7   S    
C15   H15   S    
C57   C65   A    
N12   C192  S    
C37   C114  A    
C27   C35   A    
C10   C171  A    
C55   C133  S    
C21   C29   A    
C81   C121  A    
C23   C31   A    
C115  N7    S    
C24   C32   A    
C5    C70   S    
C195  H86   S    
C146  C154  A    
Cu9   O48   S    
Cu12  O35   S    
Cu10  O47   S    
C65   H25   S    
N2    H47   S    
C63   C71   A    
C185  H9    S    
C36   C44   A    
C124  N16   S    
C128  H40   S    
C122  N14   S    
C126  H38   S    
C192  H76   S    
C175  C183  A    
C1    O14   A    
C58   C140  S    
C176  C184  A    
C91   O4    A    
C8    C71   S    
C48   C96   A    
Cu7   O15   S    
C140  O38   A    
C56   C134  S    
C132  H44   S    
C68   H28   S    
C133  O35   A    
C60   C68   A    
C148  C162  A    
C183  C188  A    
C188  H12   S    
C108  C116  A    
C2    O18   A    
C109  N1    S    
C78   C94   A    
C91   O31   A    
C134  O42   A    
C23   C95   A    
C57   C139  S    
C49   C97   A    
N12   H73   S    
C40   C115  A    
C51   C107  A    
N16   H89   S    
C102  H30   S    
C24   C43   A    
Cu1   O9    S    
C101  C109  A    
C82   C122  A    
C161  C165  A    
C17   C175  A    
C60   C138  S    
C18   C176  A    
C6    C69   S    
C189  H63   S    
C194  H82   S    
C29   C125  A    
C7    O12   A    
C69   C77   A    
Cu6   O22   S    
C31   C127  A    
C45   C93   A    
C174  C182  A    
C71   C79   A    
C179  C186  A    
C64   H24   S    
C11   C176  A    
C21   C93   A    
C17   C144  A    
C1    C74   S    
C105  C113  A    
C18   C143  A    
C78   C118  A    
C149  C151  A    
C66   C74   A    
C90   O1    A    
C49   C57   A    
C124  C132  A    
N9    C189  S    
C190  H67   S    
C52   C60   A    
C59   C67   A    
C53   C61   A    
C141  C159  A    
C20   C174  A    
N5    H54   S    
C55   C63   A    
C6    O22   A    
C86   C181  S    
Cu6   O6    S    
C35   C43   A    
C10   C166  A    
C86   O5    A    
C45   C53   A    
Cu10  O38   S    
C22   C94   A    
C171  C179  A    
Cu2   O26   S    
C156  H1    S    
C149  H8    S    
C169  C177  A    
N6    H56   S    
N13   C193  S    
C103  H31   S    
N4    H52   S    
Cu2   O2    S    
C63   H23   S    
C7    C72   S    
C104  C112  A    
C145  C163  A    
C187  H11   S    
C110  N2    S    
C14   C147  A    
C52   C100  A    
C21   C42   A    
C6    O9    A    
C79   C119  A    
C16   C145  A    
N10   C190  S    
C178  C186  A    
C136  O34   A    
N1    H45   S    
C25   C38   A    
N3    H50   S    
C46   C94   A    
C67   H27   S    
C27   C40   A    
C4    O20   A    
C91   C180  S    
Cu8   O8    S    
C90   O30   A    
C182  C188  A    
C89   C178  S    
C7    O23   A    
C137  O39   A    
C2    C73   S    
C25   C97   A    
C195  H87   S    
Cu9   O45   S    
C39   C116  A    
C194  H84   S    
Cu12  O34   S    
N7    H58   S    
Cu7   O31   S    
Cu8   O24   S    
C67   C75   A    
C18   H18   S    
C50   C106  A    
C19   C142  A    
C22   C30   A    
C20   C141  A    
C15   C146  A    
C68   C76   A    
C148  C156  A    
Cu4   O4    S    
C184  C187  A    
C134  O36   A    
C32   C128  A    
C193  H79   S    
C72   C80   A    
C130  H42   S    
C62   H22   S    
Cu9   Cu10  S    
C191  H72   S    
Cu9   O37   S    
C13   C171  A    
C2    O13   A    
C135  O43   A    
C138  O40   A    
Cu3   O27   S    
C117  C125  A    
C25   C33   A    
C119  C127  A    
C19   H19   S    
C11   C167  A    
C108  H36   S    
C127  H39   S    
N7    H57   S    
C157  C167  A    
C30   C126  A    
N15   H85   S    
C158  C168  A    
Cu11  O44   S    
C196  H91   S    
Cu12  O43   S    
C52   C108  A    
C164  C165  A    
C22   C41   A    
N8    H60   S    
C177  C185  A    
C14   H14   S    
C103  C111  A    
Cu12  O42   S    
C85   O25   A    
C16   H16   S    
C4    C75   S    
Cu2   Cu5   S    
N15   C195  S    
C162  C166  A    
C53   C135  S    
Cu5   O13   S    
C153  C155  A    
Cu7   O23   S    
C154  C156  A    
Cu8   O32   S    
C172  C180  A    
N2    H48   S    
C173  C181  A    
C157  C159  A    
C83   C99   A    
C158  C160  A    
C74   C82   A    
C192  H75   S    
C47   C103  A    
C50   C58   A    
C163  C166  A    
C147  C161  A    
N14   H81   S    
C38   C113  A    
C49   C105  A    
C54   C62   A    
C28   C39   A    
Cu3   O11   S    
C23   C44   A    
C191  H70   S    
C19   C173  A    
C79   C95   A    
C123  N15   S    
C92   C179  S    
C140  O48   A    
C46   C54   A    
Cu1   O17   S    
C137  O45   A    
C45   C101  A    
C88   O7    A    
C4    O15   A    
C111  N3    S    
C186  H10   S    
C102  C110  A    
C35   C131  A    
C125  H37   S    
C33   C129  A    
C36   C132  A    
C123  C131  A    
C135  O33   A    
C121  C129  A    
C120  C128  A    
C26   C37   A    
C10   C170  A    
C8    O11   A    
C146  C164  A    
C33   C41   A    
C142  C150  A    
C9    C165  A    
N8    H59   S    
C138  O46   A    
C118  N10   S    
C75   C83   A    
Cu11  O33   S    
C129  H41   S    
Cu10  O46   S    
C77   C93   A    
C190  H66   S    
C61   H21   S    
C189  H62   S    
C44   C111  A    
C16   C170  A    
C28   C36   A    
C144  C152  A    
N5    H53   S    
C29   C37   A    
Cu2   O10   S    
C9    C172  A    
C101  H29   S    
Cu4   O28   S    
C83   C123  A    
C193  H78   S    
C80   C120  A    
C70   C78   A    
N11   H69   S    
C8    O24   A    
Cu4   O20   S    
C141  C149  A    
N13   H77   S    
C89   O2    A    
C46   C102  A    
C117  N9    S    
C106  C114  A    
C150  H7    S    
C77   C117  A    
C104  H32   S    
C59   C137  S    
Cu5   O29   S    
C3    O16   A    
C48   C104  A    
C65   C73   A    
C159  C168  A    
C15   C169  A    
C160  C167  A    
Cu8   O16   S    
C87   O27   A    
C12   C174  A    
C26   C34   A    
Cu11  O36   S    
Cu7   O7    S    
C113  N5    S    
Cu5   O5    S    
C80   C96   A    
C153  H4    S    
C145  C153  A    
C28   C100  A    
C32   C40   A    
C189  H64   S    
C85   O6    A    
C194  H83   S    
C20   H20   S    
C66   H26   S    
C92   O3    A    
C58   C66   A    
C143  C157  A    
N3    H49   S    
C51   C99   A    
C87   O8    A    
C11   C173  A    
Cu1   O1    S    
C152  H5    S    
C86   O26   A    
C14   C172  A    
C87   C184  S    
C106  H34   S    
C13   C148  A    
C88   C183  S    
C120  N12   S    
Cu6   O14   S    
Cu3   O19   S    
C5    O10   A    
C190  H68   S    
N14   C194  S    
C54   C136  S    
C56   C64   A    
N11   C191  S    
N16   C196  S    
C3    C76   S    
C191  H71   S    
C107  C115  A    
C26   C98   A    
C12   C175  A    
C1    O17   A    
C3    O19   A    
C41   C110  A    
C150  C152  A    
C51   C59   A    
C43   C112  A    
C144  C158  A    
C136  O44   A    
C17   H17   S    
N6    H55   S    
C47   C55   A    
C61   C69   A    
C48   C56   A    
C107  H35   S    
N4    H51   S    
C105  H33   S    
C142  C160  A    
C121  N13   S    
C12   C168  A    
C84   C124  A    
C196  H90   S    
C133  O41   A    
C119  N11   S    
Cu5   O21   S    
Cu2   O18   S    
N1    H46   S    
C131  H43   S    
C81   C97   A    
C31   C39   A    
C114  N6    S    
C64   C72   A    
C151  H6    S    
N9    H61   S    
Cu9   O40   S    
C180  C185  A    
Cu10  O39   S    
C195  H88   S    
C34   C130  A    
C193  H80   S    
C47   C95   A    
C118  C126  A    
C30   C38   A    
C88   O28   A    
C122  C130  A    
