data_str_m3_o10_o29_f0_pcu.sym.163
_audit_creation_date              2012-12-10T16:59:15-0500
_audit_creation_method            fapswitch 2.2
_symmetry_space_group_name_H-M    P1
_symmetry_Int_Tables_number       1
_space_group_crystal_system       triclinic
_cell_length_a                    7.733912
_cell_length_b                    8.553494
_cell_length_c                    27.71169
_cell_angle_alpha                 90.663635
_cell_angle_beta                  86.57074
_cell_angle_gamma                 93.648625
_cell_volume                      1826.13571203

loop_
_atom_site_label
_atom_site_type_symbol
_atom_type_description
_atom_site_fract_x
_atom_site_fract_y
_atom_site_fract_z
_atom_type_partial_charge
C1    C     C_R   0.545887 0.794832 0.498726 0.976219
C2    C     C_R   0.518586 0.643407 0.127515 -0.010035
C3    C     C_R   0.512494 0.496182 0.646389 -0.039019
C4    C     C_R   0.487507 0.503818 0.353610 -0.039019
C5    C     C_R   0.546058 0.640152 0.025479 0.067934
C6    C     C_R   0.453943 0.359847 0.974521 0.067934
C7    C     C_R   0.432861 0.364115 0.025774 -0.002918
C8    C     C_R   0.567141 0.635884 0.974226 -0.002918
C9    C     C_R   0.482421 0.502900 0.051041 0.073740
C10   C     C_R   0.517580 0.497099 0.948959 0.073739
C11   C     C_R   0.583887 0.778601 0.052278 -0.227922
C12   C     C_R   0.454113 0.205168 0.501274 0.976219
C13   C     C_R   0.416114 0.221398 0.947722 -0.227922
C14   C     C_R   0.573441 0.778998 0.102170 -0.151310
C15   C     C_R   0.426560 0.221001 0.897830 -0.151310
C16   C     C_R   0.503520 0.499344 0.593920 0.874395
C17   C     C_R   0.496480 0.500656 0.406080 0.874395
C18   C     C_R   0.641294 0.765391 0.947460 -0.220769
C19   C     C_R   0.358709 0.234607 0.052540 -0.220769
C20   C     C_2   0.570165 0.958295 0.497998 -0.372535
C21   C     C_2   0.429834 0.041705 0.502002 -0.372535
C22   C     C_R   0.595933 0.623399 0.820284 0.511582
C23   C     C_R   0.531898 0.494951 0.897618 -0.088594
C24   C     C_R   0.404068 0.376600 0.179716 0.511581
C25   C     C_R   0.486567 0.356261 0.822158 0.499907
C26   C     C_R   0.513434 0.643738 0.177842 0.499907
C27   C     C_R   0.369686 0.495976 0.726393 -0.100867
C28   C     C_R   0.630314 0.504023 0.273607 -0.100867
C29   C     C_R   0.360321 0.499731 0.676535 -0.206994
C30   C     C_R   0.639679 0.500269 0.323465 -0.206994
C31   C     C_R   0.673857 0.488540 0.666770 -0.212072
C32   C     C_R   0.326143 0.511460 0.333230 -0.212072
C33   C     C_R   0.682747 0.485067 0.716636 -0.092940
C34   C     C_R   0.468103 0.505047 0.102382 -0.088594
C35   C     C_R   0.317253 0.514933 0.283364 -0.092940
C36   C     C_R   0.530762 0.488893 0.746359 0.328209
C37   C     C_R   0.469238 0.511107 0.253640 0.328209
C38   C     C_3   0.738504 0.911581 0.872667 -0.764107
C39   C     C_3   0.261498 0.088417 0.127333 -0.764107
C40   C     C_R   0.595516 0.630271 0.871332 -0.042298
C41   C     C_R   0.404486 0.369727 0.128668 -0.042298
C42   C     C_R   0.655415 0.765520 0.897032 0.184292
C43   C     C_R   0.344587 0.234478 0.102968 0.184292
C44   C     C_R   0.481415 0.356592 0.872485 -0.010035
H1    H     H_    0.793124 0.485734 0.644291 0.160515
H2    H     H_    0.252242 0.499532 0.749612 0.136173
H3    H     H_    0.609021 0.887214 0.120851 0.190252
H4    H     H_    0.390980 0.112785 0.879149 0.190252
H5    H     H_    0.620694 0.890536 0.036185 0.142436
H6    H     H_    0.379306 0.109462 0.963815 0.142436
H7    H     H_    0.693653 0.869052 0.964978 0.144849
H8    H     H_    0.306351 0.130945 0.035022 0.144849
H9    H     H_    0.702668 0.009428 0.494182 0.180761
H10   H     H_    0.297332 0.990572 0.505818 0.180761
H11   H     H_    0.783163 0.002063 0.899007 0.204695
H12   H     H_    0.206876 0.514266 0.355709 0.160514
H13   H     H_    0.854421 0.881779 0.849641 0.264141
H14   H     H_    0.643608 0.966324 0.850762 0.280172
H15   H     H_    0.216840 0.997935 0.100993 0.204695
H16   H     H_    0.356395 0.033675 0.149238 0.280172
H17   H     H_    0.145581 0.118219 0.150359 0.264141
H18   H     H_    0.014065 0.383608 0.463500 0.191826
H19   H     H_    0.985935 0.616392 0.536500 0.191826
H20   H     H_    0.807310 0.479879 0.732254 0.135098
H21   H     H_    0.192690 0.520120 0.267746 0.135098
H22   H     H_    0.765531 0.494685 0.338311 0.161188
H23   H     H_    0.234469 0.505314 0.661689 0.161188
H24   H     H_    0.747758 0.500468 0.250388 0.136173
N1    N     N_R   0.539764 0.488949 0.797526 -0.358036
N2    N     N_R   0.460237 0.511050 0.202474 -0.358035
N3    N     N_2   0.950320 0.457960 0.486880 -0.176058
N4    N     N_2   0.049680 0.542040 0.513120 -0.176058
O1    O     O_R   0.389250 0.738570 0.503220 -0.611205
O2    O     O_2   0.351900 0.250630 0.206854 -0.549519
O3    O     O_2   0.562372 0.775273 0.202228 -0.549547
O4    O     O_2   0.437629 0.224726 0.797772 -0.549547
O5    O     O_R   0.610750 0.261430 0.496780 -0.611205
O6    O     O_R   0.678390 0.711630 0.494810 -0.629500
O7    O     O_R   0.321610 0.288370 0.505190 -0.629500
O8    O     O_R   0.355440 0.513440 0.575450 -0.620854
O9    O     O_R   0.644560 0.486560 0.424550 -0.620854
O10   O     O_R   0.644590 0.486500 0.567040 -0.630946
O11   O     O_R   0.355410 0.513500 0.432960 -0.630946
O12   O     O_2   0.648100 0.749370 0.793146 -0.549519
Zn1   Zn    Zn3+2 0.306940 0.517990 0.505620 0.949663
Zn2   Zn    Zn3+2 0.693060 0.482010 0.494380 0.949663

loop_
_geom_bond_atom_site_label_1
_geom_bond_atom_site_label_2
_ccdc_geom_bond_type
C1    O6    A    
C27   C29   A    
N4    Zn1   S    
C24   N2    A    
C28   H24   S    
C15   C44   A    
C5    C11   A    
C18   C42   A    
C21   H10   S    
C11   C14   A    
C35   H21   S    
C23   C40   A    
C38   H13   S    
C12   O7    A    
C33   C36   A    
C3    C29   A    
C10   C23   A    
C29   H23   S    
C14   H3    S    
C19   H8    S    
C38   H11   S    
C31   C33   A    
C22   N1    A    
O9    Zn2   S    
C2    C34   A    
C40   C42   A    
C22   C40   A    
C38   H14   S    
C37   N2    S    
C24   C41   A    
C41   C43   A    
C34   C41   A    
C15   H4    S    
C25   C44   A    
C19   C43   A    
C18   H7    S    
C39   H17   S    
C32   C35   A    
C39   C43   S    
O10   Zn2   S    
C12   C21   S    
C8    C18   A    
C23   C44   A    
C16   O8    A    
C22   O12   S    
C5    C9    A    
O8    Zn1   S    
C11   H5    S    
N3    Zn2   S    
C39   H15   S    
C12   O5    A    
C16   O10   A    
C26   O3    S    
C2    C26   A    
C30   H22   S    
H19   N4    S    
C3    C31   A    
O1    Zn1   S    
C4    C32   A    
C4    C17   S    
C27   H2    S    
O11   Zn1   S    
O5    Zn2   S    
C7    C19   A    
C13   C15   A    
C9    C34   A    
C26   N2    A    
C25   N1    A    
O7    Zn1   S    
C36   N1    S    
C7    C9    A    
C1    C20   S    
C35   C37   A    
C20   H9    S    
C6    C10   A    
C5    C8    A    
C38   C42   S    
C6    C7    A    
C27   C36   A    
C25   O4    S    
C1    O1    A    
C28   C30   A    
N3    N4    D    
C6    C13   A    
C24   O2    S    
C28   C37   A    
C33   H20   S    
C39   H16   S    
H18   N3    S    
C17   O9    A    
C2    C14   A    
C13   H6    S    
C20   C21   D    
C8    C10   A    
O6    Zn2   S    
C31   H1    S    
C17   O11   A    
C32   H12   S    
C4    C30   A    
C3    C16   S    
