data_str_m4_o14_o24_f0_acs.sym.25
_audit_creation_date              2012-12-11T14:24:50-0500
_audit_creation_method            fapswitch 2.2
_symmetry_space_group_name_H-M    P1
_symmetry_Int_Tables_number       1
_space_group_crystal_system       triclinic
_cell_length_a                    19.006941
_cell_length_b                    10.988555
_cell_length_c                    18.771021
_cell_angle_alpha                 89.921458
_cell_angle_beta                  90.229322
_cell_angle_gamma                 90.013647
_cell_volume                      3920.45804007

loop_
_atom_site_label
_atom_site_type_symbol
_atom_type_description
_atom_site_fract_x
_atom_site_fract_y
_atom_site_fract_z
_atom_type_partial_charge
C1    C     C_R   0.714163 0.332285 0.138611 0.545425
C2    C     C_R   0.227416 0.846698 0.060950 0.024671
C3    C     C_R   0.686953 0.608527 0.410419 -0.081905
C4    C     C_R   0.942405 0.013979 0.514289 -0.144947
C5    C     C_R   0.130958 0.177742 0.434296 -0.115535
C6    C     C_R   0.442414 0.513951 0.514265 -0.144963
C7    C     C_R   0.630977 0.677754 0.434266 -0.115524
C8    C     C_R   0.940123 0.973389 0.444507 -0.114046
C9    C     C_R   0.107693 0.163618 0.503635 -0.145914
C10   C     C_R   0.440123 0.473363 0.444482 -0.114037
C11   C     C_R   0.607712 0.663652 0.503606 -0.145958
C12   C     C_R   0.878228 0.924729 0.417646 -0.080038
C13   C     C_R   0.272451 0.346964 0.939091 0.024947
C14   C     C_R   0.139830 0.079895 0.548916 -0.085644
C15   C     C_R   0.378225 0.424694 0.417632 -0.080036
C16   C     C_R   0.639862 0.579969 0.548900 -0.085643
C17   C     C_R   0.749228 0.923895 0.427272 -0.001261
C18   C     C_R   0.240791 0.933487 0.571308 0.006983
C19   C     C_R   0.249229 0.423885 0.427269 -0.001264
C20   C     C_R   0.740805 0.433522 0.571300 0.007003
C21   C     C_R   0.731186 0.379067 0.353663 0.543739
C22   C     C_R   0.270350 0.381774 0.646050 0.560288
C23   C     C_R   0.231185 0.879069 0.353660 0.543745
C24   C     C_R   0.727414 0.346694 0.060949 0.024669
C25   C     C_R   0.770348 0.881778 0.646052 0.560288
C26   C     C_R   0.532422 0.158231 0.352870 0.540360
C27   C     C_R   0.467515 0.155041 0.646371 0.557154
C28   C     C_R   0.032422 0.658231 0.352870 0.540360
C29   C     C_R   0.967516 0.655042 0.646371 0.557153
C30   C     C_R   0.741960 0.969673 0.355836 0.530810
C31   C     C_R   0.256187 0.971535 0.643631 0.548068
C32   C     C_R   0.241960 0.469672 0.355835 0.530815
C33   C     C_R   0.756190 0.471545 0.643628 0.548074
C34   C     C_3   0.520380 0.251702 0.963674 -0.147345
C35   C     C_R   0.713011 0.798817 0.977825 0.053214
C36   C     C_3   0.479350 0.251941 0.036119 -0.148359
C37   C     C_3   0.020377 0.751710 0.963677 -0.147346
C38   C     C_3   0.979347 0.751933 0.036121 -0.148357
C39   C     C_3   0.569671 0.150425 0.992648 -0.046271
C40   C     C_3   0.429923 0.150684 0.007427 -0.046694
C41   C     C_3   0.069675 0.650438 0.992648 -0.046273
C42   C     C_3   0.929927 0.650670 0.007426 -0.046691
C43   C     C_3   0.529958 0.152527 0.063786 0.006679
C44   C     C_3   0.469659 0.152283 0.936291 0.006864
C45   C     C_3   0.029961 0.652524 0.063785 0.006678
C46   C     C_R   0.286906 0.798665 0.022322 0.052915
C47   C     C_3   0.969662 0.652285 0.936290 0.006866
C48   C     C_1   0.643949 0.125995 0.979545 0.178748
C49   C     C_1   0.355651 0.126177 0.020586 0.177229
C50   C     C_1   0.143953 0.626009 0.979544 0.178744
C51   C     C_1   0.855654 0.626161 0.020585 0.177232
C52   C     C_1   0.463220 0.943301 0.076640 0.260048
C53   C     C_1   0.536007 0.942719 0.924159 0.261049
C54   C     C_1   0.963240 0.443279 0.076628 0.260045
C55   C     C_1   0.036027 0.442741 0.924146 0.261052
C56   C     C_R   0.213009 0.298822 0.977824 0.053215
C57   C     C_R   0.786904 0.298661 0.022321 0.052913
C58   C     C_R   0.708847 0.819843 0.052689 0.049687
C59   C     C_R   0.291082 0.819678 0.947441 0.049510
C60   C     C_R   0.208844 0.319848 0.052687 0.049686
C61   C     C_R   0.285756 0.332382 0.861449 0.544574
C62   C     C_R   0.791079 0.319673 0.947440 0.049511
C63   C     C_R   0.820909 0.923659 0.049816 -0.131821
C64   C     C_R   0.178973 0.923292 0.950119 -0.131511
C65   C     C_R   0.320907 0.423663 0.049815 -0.131820
C66   C     C_R   0.678972 0.423288 0.950118 -0.131512
C67   C     C_R   0.827201 0.901343 0.977824 -0.127999
C68   C     C_R   0.172644 0.900916 0.022129 -0.128586
C69   C     C_R   0.327199 0.401350 0.977823 -0.127998
C70   C     C_R   0.672642 0.400910 0.022128 -0.128586
C71   C     C_R   0.659192 0.726203 0.947177 -0.062965
C72   C     C_R   0.214164 0.832286 0.138611 0.545424
C73   C     C_R   0.340829 0.726328 0.053100 -0.063073
C74   C     C_R   0.159191 0.226205 0.947176 -0.062966
C75   C     C_R   0.840829 0.226327 0.053099 -0.063072
C76   C     C_R   0.104598 0.177844 0.988010 -0.121874
C77   C     C_R   0.895546 0.178337 0.012386 -0.122366
C78   C     C_R   0.604600 0.677838 0.988012 -0.121863
C79   C     C_R   0.395549 0.678343 0.012388 -0.122376
C80   C     C_R   0.604346 0.691913 0.061023 -0.104269
C81   C     C_R   0.395767 0.692285 0.939351 -0.104752
C82   C     C_R   0.104343 0.191920 0.061020 -0.104263
C83   C     C_R   0.785757 0.832380 0.861449 0.544575
C84   C     C_R   0.895763 0.192277 0.939349 -0.104758
C85   C     C_R   0.656858 0.759442 0.093435 -0.056768
C86   C     C_R   0.343138 0.759461 0.906808 -0.056515
C87   C     C_R   0.156855 0.259447 0.093433 -0.056764
C88   C     C_R   0.843134 0.259455 0.906806 -0.056519
C89   C     C_R   0.560015 0.150721 0.136561 0.540004
C90   C     C_R   0.439808 0.150559 0.863423 0.539984
C91   C     C_R   0.060016 0.650721 0.136561 0.540004
C92   C     C_R   0.939809 0.650559 0.863423 0.539986
C93   C     C_R   0.759101 0.895718 0.085722 0.018388
C94   C     C_3   0.480264 0.052923 0.035350 -0.015869
C95   C     C_R   0.240826 0.895481 0.914296 0.019506
C96   C     C_R   0.259099 0.395721 0.085721 0.018389
C97   C     C_R   0.740824 0.395478 0.914295 0.019504
C98   C     C_R   0.493845 0.151490 0.572871 0.002172
C99   C     C_R   0.504905 0.168854 0.424769 -0.007969
C100  C     C_R   0.993845 0.651493 0.572871 0.002171
C101  C     C_R   0.004904 0.668857 0.424769 -0.007974
C102  C     C_R   0.478198 0.048727 0.528144 0.038728
C103  C     C_R   0.470991 0.068011 0.454624 0.020955
C104  C     C_R   0.978199 0.548730 0.528143 0.038725
C105  C     C_3   0.519215 0.052676 0.965042 -0.015663
C106  C     C_R   0.970990 0.568016 0.454624 0.020955
C107  C     C_R   0.533634 0.259201 0.469425 -0.144402
C108  C     C_R   0.522597 0.255594 0.542463 -0.150747
C109  C     C_R   0.033633 0.759206 0.469424 -0.144408
C110  C     C_R   0.022597 0.755599 0.542463 -0.150742
C111  C     C_R   0.471268 0.926956 0.552577 -0.088069
C112  C     C_R   0.439472 0.977614 0.411488 -0.082895
C113  C     C_R   0.971269 0.426959 0.552576 -0.088071
C114  C     C_R   0.939470 0.477620 0.411488 -0.082894
C115  C     C_R   0.946723 0.335693 0.507822 -0.149005
C116  C     C_3   0.980273 0.552914 0.035346 -0.015868
C117  C     C_R   0.930912 0.360544 0.437246 -0.115596
C118  C     C_R   0.446724 0.835689 0.507823 -0.149012
C119  C     C_R   0.430914 0.860539 0.437247 -0.115603
C120  C     C_R   0.759454 0.927245 0.574239 0.002582
C121  C     C_R   0.249744 0.914900 0.424845 -0.002577
C122  C     C_R   0.259463 0.427225 0.574234 0.002592
C123  C     C_R   0.749753 0.414909 0.424842 -0.002579
C124  C     C_R   0.819531 0.955059 0.531076 0.038863
C125  C     C_R   0.215164 0.015172 0.453897 0.021485
C126  C     C_R   0.319542 0.455019 0.531069 0.038868
C127  C     C_3   0.019224 0.552684 0.965037 -0.015666
C128  C     C_R   0.715186 0.515198 0.453886 0.021478
C129  C     C_R   0.815985 0.927699 0.458684 0.023004
C130  C     C_R   0.198502 0.010113 0.526101 0.040845
C131  C     C_R   0.315987 0.427667 0.458676 0.022998
C132  C     C_R   0.698529 0.510164 0.526090 0.040845
C133  C     C_R   0.688297 0.922907 0.469833 -0.140079
C134  C     C_R   0.279688 0.839571 0.542144 -0.154102
C135  C     C_R   0.188301 0.422908 0.469833 -0.140094
C136  C     C_R   0.779689 0.339589 0.542142 -0.154103
C137  C     C_R   0.743506 0.964341 0.151052 0.525770
C138  C     C_R   0.772452 0.846959 0.939091 0.024945
C139  C     C_R   0.256483 0.964283 0.848957 0.527116
C140  C     C_R   0.243506 0.464342 0.151052 0.525769
C141  C     C_R   0.756483 0.464282 0.848957 0.527121
C142  C     C_R   0.693808 0.913899 0.542867 -0.153419
C143  C     C_R   0.279062 0.824619 0.469341 -0.141026
C144  C     C_R   0.193815 0.413896 0.542865 -0.153421
C145  C     C_R   0.779061 0.324627 0.469342 -0.141037
C146  C     C_R   0.882691 0.008778 0.556613 -0.086983
C147  C     C_R   0.186927 0.108511 0.410438 -0.081906
C148  C     C_R   0.382707 0.508728 0.556601 -0.086980
Cr1   Cr    Cr6+3 0.772820 0.169820 0.252640 1.000662
Cr2   Cr    Cr6+3 0.383280 0.011130 0.749340 1.012364
Cr3   Cr    Cr6+3 0.116720 0.511130 0.250660 1.007403
Cr4   Cr    Cr6+3 0.883280 0.511130 0.749340 1.012364
Cr5   Cr    Cr6+3 0.227180 0.169820 0.747360 1.006371
Cr6   Cr    Cr6+3 0.272820 0.669820 0.252640 1.000664
Cr7   Cr    Cr6+3 0.727180 0.669820 0.747360 1.006357
Cr8   Cr    Cr6+3 0.615040 0.323610 0.249150 0.999400
Cr9   Cr    Cr6+3 0.384960 0.323610 0.750850 1.003632
Cr10  Cr    Cr6+3 0.115040 0.823610 0.249150 0.999402
Cr11  Cr    Cr6+3 0.884960 0.823610 0.750850 1.003634
Cr12  Cr    Cr6+3 0.616720 0.011130 0.250660 1.007399
H1    H     H_    0.565111 0.332668 0.447964 0.148282
H2    H     H_    0.912457 0.288987 0.402299 0.127372
H3    H     H_    0.439657 0.745627 0.528650 0.104408
H4    H     H_    0.412461 0.788980 0.402299 0.127366
H5    H     H_    0.636114 0.930270 0.446869 0.151832
H6    H     H_    0.308837 0.776757 0.575618 0.119766
H7    H     H_    0.136118 0.430293 0.446872 0.151830
H8    H     H_    0.808824 0.276763 0.575621 0.119757
H9    H     H_    0.647181 0.899131 0.574770 0.124187
H10   H     H_    0.301038 0.741384 0.448057 0.152990
H11   H     H_    0.147188 0.399145 0.574771 0.124191
H12   H     H_    0.538704 0.331660 0.575363 0.122149
H13   H     H_    0.801025 0.241378 0.448062 0.152988
H14   H     H_    0.990339 0.050242 0.536165 0.098426
H15   H     H_    0.105309 0.241604 0.398774 0.123372
H16   H     H_    0.490351 0.550227 0.536129 0.098430
H17   H     H_    0.605324 0.741596 0.398737 0.123373
H18   H     H_    0.986037 0.980817 0.410906 0.123389
H19   H     H_    0.064932 0.218220 0.522901 0.104885
H20   H     H_    0.486031 0.480796 0.410874 0.123389
H21   H     H_    0.564945 0.718247 0.522864 0.104893
H22   H     H_    0.877810 0.893032 0.363019 0.124040
H23   H     H_    0.065111 0.832671 0.447963 0.148282
H24   H     H_    0.114636 0.066480 0.599762 0.135226
H25   H     H_    0.377800 0.393000 0.363004 0.124033
H26   H     H_    0.614668 0.566589 0.599746 0.135263
H27   H     H_    0.535838 0.334173 0.933482 0.118976
H28   H     H_    0.464032 0.334606 0.066059 0.118354
H29   H     H_    0.035831 0.834189 0.933488 0.118970
H30   H     H_    0.964024 0.834591 0.066064 0.118358
H31   H     H_    0.863554 0.968989 0.077109 0.120330
H32   H     H_    0.136346 0.968662 0.922761 0.120355
H33   H     H_    0.363552 0.468993 0.077108 0.120331
H34   H     H_    0.038706 0.831665 0.575362 0.122141
H35   H     H_    0.636345 0.468660 0.922760 0.120354
H36   H     H_    0.875772 0.928168 0.952223 0.132044
H37   H     H_    0.124063 0.927648 0.047687 0.132036
H38   H     H_    0.375769 0.428177 0.952222 0.132046
H39   H     H_    0.624061 0.427642 0.047686 0.132034
H40   H     H_    0.063032 0.125900 0.962770 0.097482
H41   H     H_    0.937194 0.126667 0.037741 0.097825
H42   H     H_    0.563034 0.625894 0.962773 0.097489
H43   H     H_    0.437197 0.626674 0.037744 0.097819
H44   H     H_    0.064087 0.148438 0.092781 0.114673
H45   H     H_    0.489046 0.896699 0.604260 0.140202
H46   H     H_    0.936086 0.148975 0.907676 0.114451
H47   H     H_    0.564091 0.648430 0.092784 0.114659
H48   H     H_    0.436091 0.648985 0.907679 0.114464
H49   H     H_    0.886443 0.053231 0.607779 0.132965
H50   H     H_    0.204234 0.121129 0.355995 0.123188
H51   H     H_    0.386469 0.553175 0.607767 0.132980
H52   H     H_    0.704259 0.621125 0.355974 0.123186
H53   H     H_    0.655176 0.705871 0.891849 0.189096
H54   H     H_    0.344883 0.705987 0.108449 0.190023
H55   H     H_    0.155178 0.205868 0.891849 0.189100
H56   H     H_    0.426051 0.994995 0.356268 0.133414
H57   H     H_    0.844885 0.205991 0.108449 0.190019
H58   H     H_    0.657746 0.758861 0.150960 0.134992
H59   H     H_    0.342245 0.758833 0.849285 0.136035
H60   H     H_    0.157742 0.258864 0.150959 0.134996
H61   H     H_    0.842241 0.258828 0.849283 0.136031
H62   H     H_    0.989047 0.396702 0.604259 0.140204
H63   H     H_    0.926048 0.495002 0.356268 0.133410
H64   H     H_    0.939652 0.245634 0.528648 0.104419
N1    N     N_1   0.701715 0.101261 0.967616 -0.305324
N2    N     N_1   0.297906 0.101290 0.032579 -0.306473
N3    N     N_1   0.201718 0.601273 0.967613 -0.305324
N4    N     N_1   0.797909 0.601275 0.032577 -0.306472
N5    N     N_1   0.452975 0.859921 0.112664 -0.321179
N6    N     N_1   0.546056 0.859026 0.888468 -0.321227
N7    N     N_1   0.953005 0.359885 0.112646 -0.321200
N8    N     N_1   0.046085 0.359061 0.888448 -0.321202
O1    O     O_R   0.788190 0.043000 0.172520 -0.548459
O2    O     O_R   0.454170 0.051610 0.669840 -0.529314
O3    O     O_R   0.045830 0.551610 0.330160 -0.519063
O4    O     O_R   0.954170 0.551610 0.669840 -0.529313
O5    O     O_R   0.681920 0.959720 0.327070 -0.514836
O6    O     O_R   0.318080 0.959720 0.672930 -0.498383
O7    O     O_R   0.181920 0.459720 0.327070 -0.514835
O8    O     O_R   0.818080 0.459720 0.672930 -0.498387
O9    O     O_3   0.668190 0.168190 0.250820 -0.275527
O10   O     O_3   0.331810 0.168190 0.749180 -0.277826
O11   O     O_3   0.168190 0.668190 0.250820 -0.275530
O12   O     O_R   0.211810 0.043000 0.827480 -0.548733
O13   O     O_3   0.831810 0.668190 0.749180 -0.277825
O14   O     O_R   0.766240 0.292300 0.176860 -0.508852
O15   O     O_R   0.233760 0.292300 0.823140 -0.509160
O16   O     O_R   0.266240 0.792300 0.176860 -0.508847
O17   O     O_R   0.733760 0.792300 0.823140 -0.509166
O18   O     O_R   0.670310 0.409160 0.168720 -0.518119
O19   O     O_R   0.329690 0.409160 0.831280 -0.518330
O20   O     O_R   0.170310 0.909160 0.168720 -0.518119
O21   O     O_R   0.829690 0.909160 0.831280 -0.518331
O22   O     O_R   0.556160 0.251900 0.173380 -0.518404
O23   O     O_R   0.288190 0.543000 0.172520 -0.548463
O24   O     O_R   0.443840 0.251900 0.826620 -0.518642
O25   O     O_R   0.056160 0.751900 0.173380 -0.518404
O26   O     O_R   0.943840 0.751900 0.826620 -0.518644
O27   O     O_R   0.545410 0.050140 0.168240 -0.493671
O28   O     O_R   0.454590 0.050140 0.831760 -0.492873
O29   O     O_R   0.045410 0.550140 0.168240 -0.493670
O30   O     O_R   0.954590 0.550140 0.831760 -0.492875
O31   O     O_R   0.681530 0.958350 0.176970 -0.526687
O32   O     O_R   0.318470 0.958350 0.823030 -0.528129
O33   O     O_R   0.181530 0.458350 0.176970 -0.526687
O34   O     O_R   0.711810 0.543000 0.827480 -0.548727
O35   O     O_R   0.818470 0.458350 0.823030 -0.528126
O36   O     O_R   0.788610 0.044480 0.334450 -0.524955
O37   O     O_R   0.211390 0.044480 0.665550 -0.536197
O38   O     O_R   0.288610 0.544480 0.334450 -0.524951
O39   O     O_R   0.711390 0.544480 0.665550 -0.536222
O40   O     O_R   0.766630 0.293670 0.326970 -0.504462
O41   O     O_R   0.233370 0.293670 0.673030 -0.486032
O42   O     O_R   0.266630 0.793670 0.326970 -0.504463
O43   O     O_R   0.733370 0.793670 0.673030 -0.486045
O44   O     O_R   0.670730 0.410640 0.330640 -0.521966
O45   O     O_R   0.556550 0.253260 0.323480 -0.504568
O46   O     O_R   0.329270 0.410640 0.669360 -0.533334
O47   O     O_R   0.170730 0.910640 0.330640 -0.521973
O48   O     O_R   0.829270 0.910640 0.669360 -0.533321
O49   O     O_R   0.443450 0.253260 0.676520 -0.489353
O50   O     O_R   0.056550 0.753260 0.323480 -0.504566
O51   O     O_R   0.943450 0.753260 0.676520 -0.489348
O52   O     O_R   0.545830 0.051610 0.330160 -0.519064

loop_
_geom_bond_atom_site_label_1
_geom_bond_atom_site_label_2
_ccdc_geom_bond_type
C99   C103  A    
C11   H21   S    
C90   O28   A    
C28   O50   A    
C15   H25   S    
C43   C89   S    
C111  C118  A    
C141  O35   A    
C66   C97   A    
C82   C87   A    
C100  C104  A    
C98   C108  A    
C7    H17   S    
C67   C138  A    
Cr11  O13   S    
C38   C45   S    
C134  C143  A    
C65   C96   A    
C123  C145  A    
C38   H30   S    
C89   O27   A    
Cr12  O31   S    
C114  H63   S    
C81   C86   A    
C35   C71   A    
C83   O17   A    
C17   C30   S    
C102  C111  A    
C20   C132  A    
C19   C32   S    
C64   H32   S    
C22   C122  S    
Cr6   O23   S    
C115  H64   S    
C145  H13   S    
Cr2   O2    S    
C62   C88   A    
C103  C112  A    
C36   H28   S    
C21   C123  S    
C37   C38   S    
C92   O26   A    
C120  C142  A    
Cr4   O13   S    
C20   C33   S    
C42   C116  S    
C17   C133  A    
C73   H54   S    
C18   C130  A    
C21   O44   A    
C99   C107  A    
C14   C130  A    
C90   O24   A    
Cr6   O11   S    
Cr12  O52   S    
C55   N8    T    
C84   C88   A    
Cr4   O4    S    
Cr10  O25   S    
C95   C139  S    
C72   O16   A    
C66   C70   A    
Cr8   O44   S    
Cr3   O11   S    
C84   H46   S    
Cr10  O50   S    
C51   N4    T    
C41   C45   S    
Cr5   O41   S    
C18   C31   S    
Cr6   O38   S    
C101  C109  A    
C83   C138  S    
C21   O40   A    
C113  C115  A    
Cr1   O14   S    
C47   C92   S    
C41   C127  S    
C85   H58   S    
Cr7   O17   S    
C24   C70   A    
C44   C105  S    
C5    C9    A    
C144  H11   S    
C133  C142  A    
C74   C76   A    
C35   C58   A    
C64   C68   A    
C2    C68   A    
C78   C80   A    
C52   N5    T    
C75   H57   S    
C40   C49   S    
C43   C94   S    
C63   H31   S    
C24   C57   A    
C107  C108  A    
C37   C47   S    
C147  H50   S    
C26   O52   A    
C91   O29   A    
C22   O41   A    
C26   C99   S    
Cr10  O11   S    
C13   C56   A    
C16   C132  A    
Cr9   O19   S    
Cr7   O13   S    
Cr12  O5    S    
C34   C39   S    
C76   C82   A    
C23   O47   A    
C3    C128  A    
C77   C84   A    
C124  C146  A    
Cr12  O27   S    
Cr1   O1    S    
C54   C116  S    
C68   H37   S    
Cr9   O10   S    
C121  C125  A    
C62   C97   A    
C8    C12   A    
Cr3   O3    S    
C73   C79   A    
C140  O23   A    
C87   H60   S    
C20   C136  A    
C75   C77   A    
C31   O6    A    
C55   C127  S    
C89   O22   A    
C108  H12   S    
C69   H38   S    
C67   H36   S    
C146  H49   S    
Cr4   O30   S    
C101  C106  A    
Cr1   O40   S    
C40   C94   S    
C77   H41   S    
C119  H4    S    
C96   C140  S    
C22   O46   A    
C47   C127  S    
C32   O7    A    
C117  H2    S    
C141  O34   A    
C57   C75   A    
C33   O8    A    
C45   C116  S    
C13   C69   A    
C18   C134  A    
C34   C36   S    
C112  H56   S    
C37   C41   S    
C34   H27   S    
C114  C117  A    
C104  C113  A    
C53   C105  S    
C40   C44   S    
C15   C131  A    
C1    C24   S    
C135  H7    S    
C46   C73   A    
C33   O39   A    
Cr2   O32   S    
C94   C105  S    
C100  C110  A    
C5    C147  A    
C74   H55   S    
C32   O38   A    
C104  C106  A    
C66   H35   S    
C23   C121  S    
C58   C93   A    
Cr10  O20   S    
C3    C7    A    
Cr8   O18   S    
C19   C135  A    
Cr6   O42   S    
C27   O2    A    
C28   C101  S    
C12   H22   S    
C107  H1    S    
C115  C117  A    
C116  C127  S    
Cr11  O51   S    
C134  H6    S    
C111  H45   S    
C109  H23   S    
C4    H14   S    
C5    H15   S    
C50   N3    T    
C25   O48   A    
C2    C72   S    
C65   H33   S    
C118  H3    S    
C56   C74   A    
C12   C129  A    
C143  H10   S    
Cr7   O43   S    
C125  C147  A    
C148  H51   S    
C126  C148  A    
C71   H53   S    
C56   C60   A    
C9    C14   A    
C80   C85   A    
C91   O25   A    
C133  H5    S    
C11   C16   A    
C61   O19   A    
C97   C141  S    
C142  H9    S    
C60   C96   A    
C106  C114  A    
Cr9   O24   S    
C30   O36   A    
Cr11  O21   S    
C25   C120  S    
C41   C50   S    
C29   C100  S    
C6    C10   A    
C112  C119  A    
Cr7   O39   S    
Cr3   O7    S    
C63   C93   A    
C10   C15   A    
C10   H20   S    
C25   O43   A    
C98   C102  A    
C109  C110  A    
C48   N1    T    
C65   C69   A    
Cr5   O15   S    
C124  C129  A    
C86   H59   S    
C45   C91   S    
C113  H62   S    
Cr7   O34   S    
Cr8   O9    S    
Cr3   O29   S    
Cr2   O10   S    
C88   H61   S    
C36   C43   S    
Cr1   O36   S    
C26   O45   A    
C39   C48   S    
C37   H29   S    
C27   C98   S    
C70   H39   S    
C46   C59   A    
C121  C143  A    
C122  C144  A    
C4    C8    A    
Cr10  O47   S    
C57   C62   A    
C2    C46   A    
C7    C11   A    
C83   O21   A    
C38   C42   S    
C1    O14   A    
C35   C138  A    
C23   O42   A    
C118  C119  A    
Cr2   O28   S    
Cr9   O46   S    
C125  C130  A    
Cr3   O33   S    
Cr2   O6    S    
C110  H34   S    
C52   C94   S    
Cr12  O9    S    
C136  C145  A    
C42   C51   S    
Cr5   O10   S    
Cr11  O48   S    
C102  C103  A    
C59   C95   A    
C128  C132  A    
C60   C87   A    
Cr8   O22   S    
Cr4   O35   S    
C19   C131  A    
C63   C67   A    
C17   C129  A    
C36   C40   S    
C34   C44   S    
C76   H40   S    
C79   C81   A    
C1    O18   A    
C39   C43   S    
C136  H8    S    
C122  C126  A    
C29   O4    A    
C31   O37   A    
C6    C148  A    
Cr4   O8    S    
C29   O51   A    
C4    C146  A    
C72   O20   A    
C139  O12   A    
C135  C144  A    
Cr6   O16   S    
Cr11  O26   S    
C79   H43   S    
C81   H48   S    
C30   O5    A    
C137  O1    A    
C58   C85   A    
C137  O31   A    
C54   N7    T    
C44   C90   S    
Cr9   O49   S    
C3    H52   S    
C39   C105  S    
Cr5   O37   S    
C78   H42   S    
C64   C95   A    
C9    H19   S    
C27   O49   A    
C14   H24   S    
C61   O15   A    
C53   N6    T    
C59   C86   A    
Cr8   O45   S    
C16   H26   S    
C82   H44   S    
C123  C128  A    
C6    H16   S    
C126  C131  A    
C42   C47   S    
C93   C137  S    
C28   O3    A    
C8    H18   S    
C80   H47   S    
C13   C61   S    
Cr1   O9    S    
Cr5   O12   S    
C140  O33   A    
C49   N2    T    
C139  O32   A    
C71   C78   A    
C92   O30   A    
C120  C124  A    
