data_str_m9_o2_o17_f0_sra.sym.14
_audit_creation_date              2012-12-11T16:26:24-0500
_audit_creation_method            fapswitch 2.2
_symmetry_space_group_name_H-M    P1
_symmetry_Int_Tables_number       1
_space_group_crystal_system       triclinic
_cell_length_a                    6.943019
_cell_length_b                    17.742092
_cell_length_c                    19.269365
_cell_angle_alpha                 108.451822
_cell_angle_beta                  89.465954
_cell_angle_gamma                 90.669896
_cell_volume                      2251.44777203

loop_
_atom_site_label
_atom_site_type_symbol
_atom_type_description
_atom_site_fract_x
_atom_site_fract_y
_atom_site_fract_z
_atom_type_partial_charge
O1    O     O_R   0.494330 0.415720 0.413720 -0.538364
O2    O     O_R   0.819330 0.430070 0.560210 -0.541682
O3    O     O_R   0.994320 0.584280 0.586280 -0.537720
C1    C     C_R   0.649926 0.415593 0.582315 0.700621
O4    O     O_R   0.823730 0.406300 0.412670 -0.536495
O5    O     O_R   0.998760 0.560340 0.437690 -0.543985
C2    C     C_R   0.655089 0.384963 0.384169 0.695578
O6    O     O_R   0.489890 0.439660 0.562310 -0.543342
O7    O     O_3   0.662340 0.550560 0.508380 -0.369625
V1    V     V_3+5 0.935370 0.490620 0.498450 1.417198
O8    O     O_R   0.328750 0.569930 0.439790 -0.540665
C3    C     C_R   0.161227 0.583999 0.417460 0.704315
O9    O     O_R   0.324340 0.593700 0.587330 -0.539154
C4    C     C_R   0.155551 0.616405 0.615091 0.693463
V2    V     V_3+5 0.435940 0.509380 0.501550 1.413596
O10   O     O_3   0.159100 0.449440 0.491620 -0.368229
H1    H     H_    0.802325 0.835781 0.572509 0.136957
C5    C     C_R   0.342384 0.612944 0.748329 -0.135972
C6    C     C_R   0.434569 0.609619 0.811149 -0.141977
C7    C     C_R   0.418035 0.672071 0.875982 -0.129323
C8    C     C_R   0.312244 0.738951 0.878098 -0.127255
C9    C     C_R   0.224261 0.745836 0.814321 0.071224
C10   C     C_R   0.238286 0.681132 0.748062 0.066492
C11   C     C_R   0.120677 0.815019 0.816156 -0.187508
C12   C     C_R   0.032824 0.819713 0.751378 0.070206
C13   C     C_R   0.045626 0.754779 0.685235 0.070962
C14   C     C_R   0.146376 0.685053 0.683715 -0.189971
C15   C     C_R   0.936560 0.889382 0.750380 -0.143030
C16   C     C_R   0.852803 0.894441 0.686625 -0.129391
C17   C     C_R   0.865516 0.831211 0.622165 -0.125337
C18   C     C_R   0.961938 0.762434 0.621011 -0.128979
H2    H     H_    0.353594 0.561079 0.700471 0.122618
H3    H     H_    0.515308 0.557341 0.809907 0.117220
H4    H     H_    0.485844 0.668373 0.925159 0.108775
H5    H     H_    0.299965 0.784695 0.930502 0.105569
H6    H     H_    0.926770 0.941294 0.798306 0.113725
H7    H     H_    0.779617 0.948163 0.687094 0.118866
H8    H     H_    0.972321 0.716175 0.568825 0.108874
C19   C     C_R   0.277809 0.615582 0.306250 -0.222607
C20   C     C_R   0.154756 0.632274 0.367510 -0.095597
C21   C     C_R   0.023644 0.694810 0.380780 -0.205134
C22   C     C_R   0.014257 0.741461 0.333823 0.065278
C23   C     C_R   0.136054 0.723316 0.271403 -0.016870
C24   C     C_R   0.267669 0.660052 0.257556 0.110728
C25   C     C_R   0.888957 0.806936 0.348592 0.284910
C26   C     C_R   0.888592 0.853717 0.301972 -0.261164
C27   C     C_R   0.001952 0.833857 0.238268 0.064134
C28   C     C_R   0.127400 0.768831 0.223003 0.043533
C29   C     C_R   0.246535 0.750187 0.160044 0.120723
C30   C     C_R   0.376137 0.686978 0.146899 -0.187894
C31   C     C_R   0.387346 0.642643 0.195378 -0.183773
C32   C     C_R   0.993714 0.878861 0.190205 -0.213489
C33   C     C_R   0.109052 0.860512 0.126906 -0.086999
C34   C     C_R   0.235559 0.795768 0.112039 -0.236824
H9    H     H_    0.379037 0.567116 0.295935 0.117870
H10   H     H_    0.932256 0.707828 0.428928 0.151116
H11   H     H_    0.798158 0.905588 0.315846 0.124743
H12   H     H_    0.903282 0.930311 0.203688 0.123982
H13   H     H_    0.327349 0.781860 0.063912 0.108418
H14   H     H_    0.469758 0.672069 0.099270 0.121949
H15   H     H_    0.489471 0.594463 0.184088 0.124410
C35   C     C_R   0.782935 0.182023 0.867305 -0.213274
C36   C     C_R   0.623111 0.132893 0.867750 -0.083927
C37   C     C_R   0.467507 0.130984 0.820836 -0.216881
C38   C     C_R   0.471008 0.177187 0.773696 0.102192
C39   C     C_R   0.630516 0.227430 0.774393 0.045925
C40   C     C_R   0.786244 0.230117 0.821700 0.055611
C41   C     C_R   0.317343 0.174234 0.726081 -0.199101
C42   C     C_R   0.321138 0.220799 0.679535 -0.181499
C43   C     C_R   0.478078 0.271566 0.680105 0.112599
C44   C     C_R   0.633809 0.275131 0.727911 -0.013247
C45   C     C_R   0.791898 0.326590 0.729570 0.055131
C46   C     C_R   0.943234 0.331661 0.779645 0.289251
C47   C     C_R   0.940911 0.282138 0.823909 -0.261628
C48   C     C_R   0.481692 0.318732 0.633709 -0.201218
C49   C     C_R   0.641193 0.367892 0.633009 -0.105332
C50   C     C_R   0.795198 0.371402 0.680922 -0.205220
H16   H     H_    0.902362 0.184359 0.903822 0.126388
H17   H     H_    0.344125 0.092810 0.820487 0.123177
H18   H     H_    0.193687 0.136036 0.724988 0.132782
H19   H     H_    0.200352 0.217579 0.643457 0.130040
H20   H     H_    0.362487 0.315829 0.596961 0.124879
H21   H     H_    0.917431 0.409719 0.680334 0.163807
H22   H     H_    0.058632 0.285828 0.861466 0.134683
H23   H     H_    0.424734 0.154448 0.444747 0.129381
C51   C     C_R   0.752268 0.400656 0.243312 -0.150164
C52   C     C_R   0.796807 0.410653 0.176122 -0.123913
C53   C     C_R   0.782978 0.346692 0.112161 -0.118179
C54   C     C_R   0.725197 0.272215 0.114952 -0.133773
C55   C     C_R   0.680296 0.259918 0.182506 0.065503
C56   C     C_R   0.693366 0.325682 0.247876 0.069799
C57   C     C_R   0.623167 0.183745 0.185391 -0.190816
C58   C     C_R   0.580891 0.173219 0.254881 0.001842
C59   C     C_R   0.581690 0.241133 0.319258 0.039585
C60   C     C_R   0.643516 0.316217 0.315990 -0.164609
C61   C     C_R   0.540095 0.097074 0.263119 0.281888
C62   C     C_R   0.479006 0.092353 0.331688 -0.139072
C63   C     C_R   0.469047 0.159493 0.392343 -0.189364
C64   C     C_R   0.524196 0.232553 0.386977 -0.136306
H24   H     H_    0.763409 0.452462 0.291455 0.101163
H25   H     H_    0.841393 0.468452 0.173681 0.116266
H26   H     H_    0.816966 0.354783 0.060007 0.113457
H27   H     H_    0.716233 0.224648 0.063471 0.092478
H28   H     H_    0.444883 0.036224 0.339966 0.121499
H29   H     H_    0.521196 0.282175 0.437047 0.114284
O11   O     O_R   0.775200 0.060470 0.937800 -0.546058
O12   O     O_R   0.441110 0.093720 0.087350 -0.524517
O13   O     O_R   0.266330 0.939630 0.062280 -0.529879
C65   C     C_R   0.610084 0.116405 0.115435 0.755287
O14   O     O_R   0.445750 0.069950 0.939820 -0.543813
O15   O     O_R   0.271000 0.915700 0.913700 -0.539623
C66   C     C_R   0.614999 0.084488 0.917783 0.693088
O16   O     O_R   0.770530 0.084400 0.086380 -0.544842
O17   O     O_3   0.602830 0.949510 0.991680 -0.366363
V3    V     V_3+5 0.329710 0.009370 0.001550 1.436804
O18   O     O_R   0.940990 0.906170 0.912570 -0.539771
C67   C     C_R   0.110076 0.883423 0.884936 0.686008
O19   O     O_R   0.936350 0.929940 0.060100 -0.542229
C68   C     C_R   0.104230 0.912433 0.079619 0.705233
V4    V     V_3+5 0.829160 0.990450 0.998310 1.415331
O20   O     O_3   0.105910 0.050480 0.008320 -0.370481
N1    N     N_2   0.765141 0.827168 0.410959 -0.542707
H30   H     H_    0.747084 0.887559 0.434662 0.253701
C69   C     C_3   0.582800 0.784866 0.398766 -0.544405
H31   H     H_    0.499608 0.800235 0.450791 0.196657
H32   H     H_    0.605930 0.719647 0.379506 0.212489
H33   H     H_    0.497520 0.801755 0.357510 0.203014
N2    N     N_2   0.095524 0.388096 0.787639 -0.523348
H34   H     H_    0.225267 0.369305 0.801692 0.267183
C70   C     C_3   0.047133 0.466653 0.835247 -0.571460
H35   H     H_    0.015339 0.465102 0.891436 0.194461
H36   H     H_    0.920419 0.490051 0.814127 0.203880
H37   H     H_    0.170382 0.507587 0.837981 0.210978
N3    N     N_2   0.580229 0.026016 0.204871 -0.530165
H38   H     H_    0.720804 0.022516 0.186946 0.244058
C71   C     C_3   0.498749 0.951346 0.206226 -0.519379
H39   H     H_    0.523667 0.905754 0.152415 0.216633
H40   H     H_    0.342728 0.958314 0.218201 0.207903
H41   H     H_    0.568225 0.931183 0.248418 0.170548

loop_
_geom_bond_atom_site_label_1
_geom_bond_atom_site_label_2
_ccdc_geom_bond_type
C41   H18   S    
C52   C53   A    
C48   C49   A    
C58   C59   A    
V3    O20   S    
C21   C22   A    
O2    C1    A    
C6    C7    A    
C31   H15   S    
C1    O6    A    
N2    H34   S    
O17   V3    S    
O11   C66   A    
C33   C34   A    
V4    O20   S    
C12   C15   A    
C11   C67   S    
C16   C17   A    
C35   C40   A    
O13   V3    S    
C15   C16   A    
C51   C56   A    
O5    C3    A    
C17   C18   A    
C57   C65   S    
C50   H21   S    
C29   C34   A    
O18   C67   A    
C5    C6    A    
C46   C47   A    
C36   C66   S    
O19   C68   A    
H23   C63   S    
C45   C50   A    
C52   H25   S    
O8    V2    S    
C19   H9    S    
C27   C28   A    
C41   C42   A    
C43   C44   A    
O1    V2    S    
C10   C14   A    
C4    C14   S    
C51   H24   S    
O7    V1    S    
C65   O16   A    
C7    H4    S    
C39   C40   A    
C13   C18   A    
O9    C4    A    
C54   H27   S    
H1    C17   S    
O12   C65   A    
O13   C68   A    
C59   C60   A    
C71   H41   S    
C62   C63   A    
O19   V4    S    
C34   H13   S    
C64   H29   S    
C5    C10   A    
C11   C12   A    
C71   H40   S    
C6    H3    S    
C54   C55   A    
C19   C20   A    
O4    C2    A    
C51   C52   A    
C45   C46   A    
C61   N3    S    
C12   C13   A    
C25   C26   A    
O18   V4    S    
C22   C25   A    
C3    C20   S    
C70   H36   S    
C23   C24   A    
C21   H10   S    
N3    C71   S    
C35   C36   A    
O16   V4    S    
C55   C57   A    
C39   C44   A    
C38   C41   A    
C61   C62   A    
C7    C8    A    
C30   C31   A    
C13   C14   A    
C40   C47   A    
C49   C50   A    
O12   V3    S    
C27   C32   A    
O3    C4    A    
C32   H12   S    
C69   H33   S    
C24   C31   A    
C28   C29   A    
C63   C64   A    
O6    V2    S    
O9    V2    S    
C26   H11   S    
C37   H17   S    
C9    C11   A    
C70   H37   S    
C5    H2    S    
C22   C23   A    
N1    C69   S    
O2    V1    S    
C32   C33   A    
C69   H32   S    
C23   C28   A    
C26   C27   A    
C20   C21   A    
O11   V4    S    
O1    C2    A    
C35   H16   S    
C47   H22   S    
C71   H39   S    
N2    C70   S    
O5    V1    S    
C53   H26   S    
O8    C3    A    
C33   C68   S    
C48   H20   S    
C19   C24   A    
C8    H5    S    
C25   N1    S    
C58   C61   A    
C46   N2    S    
C2    C60   S    
N3    H38   S    
C18   H8    S    
O15   C67   A    
C30   H14   S    
C37   C38   A    
C70   H35   S    
O7    V2    S    
O4    V1    S    
O3    V1    S    
V1    O10   S    
C55   C56   A    
C59   C64   A    
C57   C58   A    
C38   C39   A    
C42   C43   A    
O14   C66   A    
C1    C49   S    
C62   H28   S    
C42   H19   S    
C56   C60   A    
C36   C37   A    
C44   C45   A    
C53   C54   A    
C15   H6    S    
C29   C30   A    
C16   H7    S    
C43   C48   A    
C9    C10   A    
O15   V3    S    
N1    H30   S    
C8    C9    A    
O14   V3    S    
O17   V4    S    
V2    O10   S    
C69   H31   S    
