data_str_m4_o1_o15_f0_acs.sym.126
_audit_creation_date              2012-12-11T14:45:55-0500
_audit_creation_method            fapswitch 2.2
_symmetry_space_group_name_H-M    P1
_symmetry_Int_Tables_number       1
_space_group_crystal_system       triclinic
_cell_length_a                    10.954036
_cell_length_b                    11.034809
_cell_length_c                    18.941226
_cell_angle_alpha                 90.95423
_cell_angle_beta                  90.01501
_cell_angle_gamma                 119.865793
_cell_volume                      1985.09851146

loop_
_atom_site_label
_atom_site_type_symbol
_atom_type_description
_atom_site_fract_x
_atom_site_fract_y
_atom_site_fract_z
_atom_type_partial_charge
C1    C     C_R   0.865914 0.641631 0.603148 0.564778
C2    C     C_R   0.348755 0.570116 0.786342 -0.112045
C3    C     C_R   0.346369 0.569218 0.713515 0.236498
C4    C     C_R   0.312465 0.660289 0.678702 0.050967
C5    C     C_R   0.802297 0.080641 0.813500 -0.018190
C6    C     C_R   0.060914 0.150145 0.817701 -0.074836
C7    C     C_R   0.181516 0.175555 0.781648 -0.122992
C8    C     C_R   0.180303 0.168861 0.708599 -0.075783
C9    C     C_R   0.064142 0.153117 0.671187 -0.065323
C10   C     C_R   0.946869 0.143960 0.706933 -0.006423
C11   C     C_R   0.935913 0.121710 0.780889 0.013790
C12   C     C_R   0.268515 0.631075 0.604672 0.572119
C13   C     C_R   0.740197 0.168694 0.715353 0.005062
C14   C     C_R   0.696947 0.087521 0.773750 -0.030652
C15   C     C_R   0.690028 0.262950 0.708578 0.309060
C16   C     C_R   0.555245 0.225339 0.731755 -0.052221
C17   C     C_R   0.484570 0.106819 0.772159 -0.175996
C18   C     C_R   0.558967 0.043621 0.796435 -0.107707
C19   C     C_R   0.847825 0.172301 0.673993 -0.043613
C20   C     C_R   0.702992 0.588958 0.704969 -0.111287
C21   C     C_R   0.689661 0.583627 0.778616 -0.127157
C22   C     C_R   0.808433 0.663300 0.821855 -0.012937
C23   C     C_R   0.863818 0.229383 0.602984 0.541259
C24   C     C_R   0.938157 0.749591 0.790686 -0.060439
C25   C     C_R   0.948392 0.765572 0.718985 0.225411
C26   C     C_R   0.834269 0.673006 0.674606 0.041001
C27   C     C_R   0.250097 0.538594 0.274662 -0.124413
C28   C     C_R   0.267084 0.555750 0.202608 -0.128286
C29   C     C_R   0.338563 0.690185 0.174739 0.028152
C30   C     C_R   0.381957 0.807424 0.219804 -0.132143
C31   C     C_R   0.360971 0.789701 0.292520 -0.134298
C32   C     C_R   0.299801 0.655159 0.320333 0.036235
C33   C     C_R   0.770283 0.233698 0.277199 -0.129729
C34   C     C_R   0.865871 0.637863 0.397242 0.540762
C35   C     C_R   0.770772 0.221238 0.204895 -0.137079
C36   C     C_R   0.849728 0.167858 0.173084 0.026683
C37   C     C_R   0.940345 0.141414 0.214329 -0.143255
C38   C     C_R   0.943033 0.158146 0.287484 -0.150184
C39   C     C_R   0.854127 0.199958 0.319240 0.034740
C40   C     C_R   0.923227 0.778075 0.291323 -0.128975
C41   C     C_R   0.917954 0.784470 0.219277 -0.127796
C42   C     C_R   0.811130 0.673604 0.179964 0.034503
C43   C     C_R   0.708675 0.554960 0.214683 -0.137092
C44   C     C_R   0.717935 0.545751 0.287775 -0.136963
C45   C     C_R   0.264918 0.629599 0.394832 0.544012
C46   C     C_R   0.827839 0.656455 0.326111 0.034319
C47   C     C_R   0.772004 0.044514 0.888067 0.553691
C48   C     C_R   0.391512 0.697951 0.897608 0.535108
C49   C     C_R   0.795257 0.692593 0.896048 0.539710
C50   C     C_R   0.808909 0.107963 0.102245 0.556126
C51   C     C_R   0.396288 0.705885 0.103808 0.548916
C52   C     C_R   0.796375 0.698675 0.106012 0.553021
C53   C     C_R   0.864104 0.234556 0.394059 0.541618
C54   C     C_R   0.286605 0.753657 0.718409 -0.164399
C55   C     C_R   0.292397 0.755323 0.792011 -0.168762
C56   C     C_R   0.333752 0.670206 0.825836 -0.011869
Cr1   Cr    Cr6+3 0.791660 0.390250 0.499930 1.040090
Cr2   Cr    Cr6+3 0.098520 0.708290 0.500540 1.021466
Cr3   Cr    Cr6+3 0.109770 0.401430 0.499480 1.031415
Cr4   Cr    Cr6+3 0.874790 0.925890 0.000070 1.003602
Cr5   Cr    Cr6+3 0.574120 0.948670 0.999300 1.007073
Cr6   Cr    Cr6+3 0.551420 0.625320 0.000920 1.012740
H1    H     H_    0.262025 0.824815 0.692286 0.211011
H2    H     H_    0.510127 0.291065 0.722738 0.092020
H3    H     H_    0.380050 0.073383 0.791270 0.120113
H4    H     H_    0.616488 0.518097 0.671427 0.171997
H5    H     H_    0.588220 0.517003 0.801728 0.116445
H6    H     H_    0.030935 0.817040 0.822255 0.155263
H7    H     H_    0.196361 0.433298 0.294604 0.139543
H8    H     H_    0.231284 0.463578 0.168990 0.132231
H9    H     H_    0.438739 0.912369 0.199501 0.133918
H10   H     H_    0.272764 0.827977 0.822105 0.123799
H11   H     H_    0.395363 0.880412 0.327015 0.121305
H12   H     H_    0.704827 0.271653 0.300034 0.131865
H13   H     H_    0.701634 0.244595 0.174309 0.129305
H14   H     H_    0.003242 0.101308 0.190561 0.121745
H15   H     H_    0.012483 0.136961 0.319090 0.114313
H16   H     H_    0.008424 0.866452 0.319057 0.132999
H17   H     H_    0.996985 0.879174 0.194810 0.130344
H18   H     H_    0.622700 0.470107 0.185528 0.121613
H19   H     H_    0.642393 0.451372 0.313804 0.119048
H20   H     H_    0.371469 0.496463 0.811744 0.120378
H21   H     H_    0.275998 0.200462 0.810956 0.085645
H22   H     H_    0.270452 0.178362 0.680447 0.124022
H23   H     H_    0.075265 0.163746 0.873828 0.152395
H24   H     H_    0.068060 0.146170 0.614484 0.133766
H25   H     H_    0.512622 0.969158 0.836043 0.178208
O1    O     O_R   0.766500 0.250040 0.579790 -0.479604
O2    O     O_R   0.218690 0.701900 0.425960 -0.502936
O3    O     O_R   0.249490 0.516440 0.419420 -0.525872
O4    O     O_R   0.982880 0.281910 0.424890 -0.513335
O5    O     O_3   0.999980 0.499990 0.499980 -0.261215
O6    O     O_R   0.895110 0.806860 0.920430 -0.536254
O7    O     O_R   0.872260 0.046970 0.925000 -0.520507
O8    O     O_R   0.691430 0.085060 0.918550 -0.513737
O9    O     O_R   0.451490 0.822460 0.925250 -0.537268
O10   O     O_R   0.413330 0.603360 0.920440 -0.526474
O11   O     O_R   0.676110 0.626250 0.926750 -0.500435
O12   O     O_R   0.798570 0.516780 0.574780 -0.453452
O13   O     O_R   0.895350 0.809870 0.080950 -0.527581
O14   O     O_R   0.872490 0.049760 0.073800 -0.505098
O15   O     O_R   0.691680 0.088070 0.079070 -0.520136
O16   O     O_R   0.451720 0.825250 0.074050 -0.503792
O17   O     O_R   0.413580 0.606370 0.080960 -0.520180
O18   O     O_R   0.676340 0.629040 0.075550 -0.499836
O19   O     O_3   0.666780 0.833290 0.000090 -0.263819
O20   O     O_R   0.984000 0.732950 0.581090 -0.517815
O21   O     O_R   0.218600 0.700890 0.574760 -0.512862
O22   O     O_R   0.249390 0.515350 0.579940 -0.441409
O23   O     O_R   0.982790 0.280900 0.573700 -0.516648
O24   O     O_R   0.766600 0.251130 0.419260 -0.529510
O25   O     O_R   0.798660 0.517790 0.425980 -0.513456
O26   O     O_R   0.984100 0.734040 0.420570 -0.529637
O27   O     O_3   0.779820 0.398160 0.691071 -0.690489
H26   H     H_    0.878689 0.420274 0.698020 0.318059
O28   O     O_3   0.073255 0.871742 0.694524 -0.730936
H27   H     H_    0.050173 0.914597 0.655138 0.339502
O29   O     O_3   0.375537 0.478860 0.675632 -0.698872
H28   H     H_    0.395960 0.422799 0.708707 0.291237

loop_
_geom_bond_atom_site_label_1
_geom_bond_atom_site_label_2
_ccdc_geom_bond_type
C7    H21   S    
C55   C56   A    
Cr1   O5    S    
C34   O25   A    
C41   C42   A    
C14   C18   A    
C35   C36   A    
C1    O12   A    
O27   H26   S    
Cr5   O9    S    
C36   C50   S    
C7    C8    A    
Cr6   O18   S    
C39   C53   S    
C34   O26   A    
C40   C46   A    
C48   O10   A    
C5    C47   S    
C35   H13   S    
C29   C30   A    
C6    H23   S    
C20   H4    S    
C36   C37   A    
Cr5   O16   S    
C5    C11   A    
C30   C31   A    
C31   H11   S    
Cr1   O25   S    
C54   H1    S    
C51   O16   A    
C15   C16   A    
Cr1   O12   S    
Cr3   O23   S    
O28   H27   S    
Cr2   O20   S    
C32   C45   S    
O29   H28   S    
C33   C35   A    
C49   O11   A    
Cr6   O11   S    
C8    C9    A    
C53   O4    A    
Cr2   O26   S    
C34   C46   S    
C4    C12   S    
C45   O2    A    
C9    C10   A    
Cr2   O21   S    
C55   H10   S    
C27   H7    S    
Cr4   O6    S    
C53   O24   A    
C21   C22   A    
C21   H5    S    
C12   O22   A    
C44   C46   A    
C30   H9    S    
Cr6   O17   S    
C38   C39   A    
C13   C19   A    
C24   C25   A    
C44   H19   S    
C25   O28   S    
C6    C11   A    
C12   O21   A    
C16   C17   A    
Cr3   O4    S    
C25   C26   A    
C52   O13   A    
Cr3   O3    S    
C19   C23   S    
C43   C44   A    
C37   C38   A    
C45   O3    A    
C3    O29   S    
C9    H24   S    
Cr6   O10   S    
C31   C32   A    
C10   C19   A    
C17   C18   A    
C15   O27   S    
C33   C39   A    
Cr5   O19   S    
C5    C14   A    
C1    O20   A    
C22   C49   S    
C40   C41   A    
C37   H14   S    
C52   O18   A    
C50   O15   A    
C23   O1    A    
C13   C15   A    
C1    C26   S    
C40   H16   S    
C2    H20   S    
C42   C43   A    
Cr4   O14   S    
Cr4   O19   S    
C43   H18   S    
C29   C51   S    
C48   C56   S    
C23   O23   A    
C54   C55   A    
C28   C29   A    
C48   O9    A    
C4    C54   A    
C27   C32   A    
C8    H22   S    
C28   H8    S    
Cr4   O13   S    
C41   H17   S    
Cr5   O8    S    
C6    C7    A    
Cr6   O19   S    
C38   H15   S    
C17   H3    S    
C18   H25   S    
Cr1   O1    S    
Cr5   O15   S    
C51   O17   A    
C2    C56   A    
Cr1   O24   S    
C20   C26   A    
Cr3   O22   S    
C47   O7    A    
C2    C3    A    
C22   C24   A    
Cr3   O5    S    
Cr2   O2    S    
C10   C11   A    
C24   H6    S    
C33   H12   S    
C20   C21   A    
C50   O14   A    
C27   C28   A    
C47   O8    A    
C16   H2    S    
C49   O6    A    
C13   C14   A    
Cr2   O5    S    
C3    C4    A    
C42   C52   S    
Cr4   O7    S    
