data_str_m2_o16_o18_f0_pcu.sym.128
_audit_creation_date              2013-03-05T15:54:52-0500
_audit_creation_method            fapswitch 2.2
_symmetry_space_group_name_H-M    P1
_symmetry_Int_Tables_number       1
_space_group_crystal_system       triclinic
_cell_length_a                    12.491223
_cell_length_b                    13.288644
_cell_length_c                    14.326135
_cell_angle_alpha                 94.369144
_cell_angle_beta                  108.049866
_cell_angle_gamma                 117.944429
_cell_volume                      1926.73507636

loop_
_atom_site_label
_atom_site_type_symbol
_atom_site_description
_atom_site_fract_x
_atom_site_fract_y
_atom_site_fract_z
_atom_type_partial_charge
O1    O     O_R   0.545970 0.684450 0.528810 -0.556195
O2    O     O_R   0.687130 0.639470 0.490120 -0.534544
C1    C     C_R   0.649359 0.714211 0.507459 0.792317
O3    O     O_R   0.519670 0.535100 0.660030 -0.550661
O4    O     O_R   0.660830 0.490120 0.621340 -0.573681
C2    C     C_R   0.616721 0.514271 0.686626 0.792648
Cu1   Cu    Cu3+1 0.416420 0.526630 0.522910 0.965701
Cu2   Cu    Cu3+1 0.583580 0.473370 0.477090 0.937061
O5    O     O_R   0.312870 0.360530 0.509880 -0.577679
O6    O     O_R   0.454030 0.315550 0.471190 -0.583888
O7    O     O_R   0.339170 0.509880 0.378660 -0.543919
O8    O     O_R   0.480330 0.464900 0.339970 -0.610741
C3    C     C_R   0.345162 0.284782 0.485416 0.777642
C4    C     C_R   0.381085 0.481720 0.313247 0.760860
C5    C     C_R   0.687072 0.524299 0.794551 -0.149528
C6    C     C_R   0.314219 0.468764 0.205001 -0.046023
C7    C     C_R   0.753701 0.597417 0.974724 -0.215000
C8    C     C_R   0.656811 0.555930 0.875376 0.273828
C9    C     C_R   0.794064 0.506806 0.817093 -0.331489
C10   C     C_R   0.872564 0.521397 0.916583 0.093371
C11   C     C_R   0.862104 0.583090 0.994587 0.118140
C12   C     C_R   0.968063 0.486175 0.941009 0.022992
C13   C     C_R   0.063214 0.530536 0.043513 0.038388
C14   C     C_R   0.063432 0.610948 0.114215 -0.220923
C15   C     C_R   0.961780 0.632800 0.090947 -0.229254
C16   C     C_R   0.969581 0.404221 0.870609 0.134601
C17   C     C_R   0.071098 0.380871 0.899209 -0.236343
C18   C     C_R   0.161185 0.421429 0.999382 0.105795
C19   C     C_R   0.153790 0.491525 0.073535 0.087276
C20   C     C_R   0.251728 0.383897 0.027689 -0.201659
C21   C     C_R   0.328949 0.408574 0.129876 -0.179253
C22   C     C_R   0.229814 0.512088 0.176613 -0.239011
H1    H     H_    0.963406 0.692183 0.147668 0.175790
H2    H     H_    0.219414 0.555598 0.236824 0.153669
H3    H     H_    0.394933 0.375242 0.150149 0.149984
H4    H     H_    0.071820 0.320749 0.844043 0.156597
H5    H     H_    0.744050 0.637830 0.037638 0.158890
H6    H     H_    0.821036 0.488668 0.756730 0.179226
H7    H     H_    0.140845 0.658143 0.188938 0.137351
H8    H     H_    0.258925 0.331211 0.971024 0.135369
C23   C     C_R   0.131759 0.957613 0.366156 -0.175540
H9    H     H_    0.317167 0.092939 0.370566 0.140531
H10   H     H_    0.128304 0.894392 0.311326 0.133929
C24   C     C_R   0.247507 0.159605 0.465438 -0.049597
C25   C     C_R   0.733079 0.924639 0.576553 -0.181890
C26   C     C_R   0.829093 0.042810 0.600326 -0.157447
C27   C     C_R   0.928287 0.076378 0.563670 -0.158111
C28   C     C_R   0.928231 0.992001 0.496523 0.044010
C29   C     C_R   0.817286 0.876032 0.459073 -0.035368
C30   C     C_R   0.033402 0.018542 0.464814 0.035223
C31   C     C_R   0.025365 0.929366 0.396095 0.019448
C32   C     C_R   0.908462 0.816653 0.353633 0.228978
C33   C     C_R   0.798534 0.800004 0.373450 0.136752
C34   C     C_R   0.147925 0.130936 0.501410 -0.219465
C35   C     C_R   0.241166 0.071898 0.399938 -0.185288
C36   C     C_R   0.729526 0.839320 0.509508 -0.100482
H11   H     H_    0.161272 0.200090 0.556275 0.138929
H12   H     H_    0.664934 0.899655 0.614175 0.159955
H13   H     H_    0.002101 0.169013 0.588949 0.123362
H14   H     H_    0.830925 0.108049 0.651977 0.161631
C37   C     C_R   0.253607 0.652250 0.687537 0.132901
H15   H     H_    0.070794 0.652154 0.741378 0.198798
N1    N     N_R   0.290690 0.566960 0.557640 -0.185043
C38   C     C_R   0.647610 0.341648 0.359853 0.025107
C39   C     C_R   0.714487 0.291749 0.334533 0.213875
C40   C     C_R   0.848991 0.342105 0.392255 -0.269618
C41   C     C_R   0.920269 0.443779 0.474643 -0.044685
C42   C     C_R   0.844140 0.485464 0.503266 0.223404
C43   C     C_R   0.062853 0.504150 0.532441 -0.109018
C44   C     C_R   0.116052 0.580820 0.630212 0.037209
C45   C     C_R   0.032321 0.595852 0.666169 -0.299185
C46   C     C_R   0.912033 0.573394 0.598495 0.228330
C47   C     C_R   0.157580 0.498347 0.498590 0.271146
C48   C     C_R   0.339638 0.645428 0.647545 0.261070
N2    N     N_R   0.709100 0.433710 0.442970 -0.231521
H16   H     H_    0.543657 0.303392 0.315476 0.141233
H17   H     H_    0.891680 0.293506 0.375108 0.145440
N3    N     N_2   0.906348 0.721730 0.296137 -0.450681
H18   H     H_    0.992993 0.721900 0.325407 0.233295
C49   C     C_3   0.792874 0.602711 0.261964 -0.640591
H19   H     H_    0.818018 0.539587 0.234127 0.209184
H20   H     H_    0.710476 0.595364 0.197232 0.250705
H21   H     H_    0.762554 0.577233 0.325470 0.256812
N4    N     N_3   0.669738 0.727930 0.293803 -0.592269
H22   H     H_    0.629845 0.780893 0.274414 0.209191
H23   H     H_    0.608153 0.661918 0.318488 0.230287
N5    N     N_3   0.479490 0.718674 0.701003 -0.522212
H24   H     H_    0.504971 0.710350 0.775433 0.243618
H25   H     H_    0.506483 0.806446 0.703792 0.171633
N6    N     N_2   0.304993 0.737497 0.781054 -0.445956
H26   H     H_    0.388319 0.817799 0.794639 0.248992
C50   C     C_3   0.302804 0.693355 0.870218 -0.704471
H27   H     H_    0.404153 0.719231 0.920693 0.228612
H28   H     H_    0.237855 0.595717 0.849552 0.238882
H29   H     H_    0.265207 0.732996 0.912842 0.234557
N7    N     N_3   0.119847 0.426546 0.401557 -0.534929
H30   H     H_    0.055849 0.439344 0.343767 0.201793
H31   H     H_    0.084377 0.338646 0.403569 0.211789
N8    N     N_2   0.646329 0.190020 0.250895 -0.434463
H32   H     H_    0.706653 0.174230 0.224650 0.255223
C51   C     C_3   0.545571 0.084469 0.262811 -0.700655
H33   H     H_    0.497837 0.010832 0.193682 0.228160
H34   H     H_    0.468272 0.098419 0.272470 0.219968
H35   H     H_    0.590039 0.059051 0.329711 0.233923
N9    N     N_2   0.880518 0.658798 0.622706 -0.352029
H36   H     H_    0.876086 0.665270 0.693437 0.242837
C52   C     C_3   0.970728 0.775726 0.618028 -0.664968
H37   H     H_    0.939853 0.837584 0.636921 0.224192
H38   H     H_    0.972605 0.772553 0.541098 0.237897
H39   H     H_    0.072356 0.811516 0.674788 0.214846
N10   N     N_2   0.531359 0.544308 0.856415 -0.422877
H40   H     H_    0.455084 0.475243 0.795002 0.264943
C53   C     C_3   0.493480 0.551106 0.941505 -0.735822
H41   H     H_    0.389269 0.527565 0.912804 0.232141
H42   H     H_    0.555009 0.642378 0.991901 0.240863
H43   H     H_    0.502348 0.487687 0.984992 0.232251
N11   N     N_3   0.861523 0.328018 0.776054 -0.620402
H44   H     H_    0.770749 0.302157 0.780551 0.237006
H45   H     H_    0.873751 0.366351 0.716261 0.222018

loop_
_geom_bond_atom_site_label_1
_geom_bond_atom_site_label_2
_geom_bond_distance
_ccdc_geom_bond_type
C37   C44   1.416323 A    
C5    C8    1.416448 A    
N5    H24   1.044598 S    
C51   H33   1.110601 S    
C52   H38   1.107620 S    
N10   H40   1.030597 S    
C16   N11   1.434991 S    
Cu1   Cu2   2.730445 S    
C25   C26   1.385845 A    
C32   C33   1.407644 A    
C42   N2    1.408467 A    
C5    C9    1.406992 A    
N9    C52   1.452674 S    
C16   C17   1.392232 A    
C30   C34   1.401955 A    
C33   N4    1.435039 S    
C13   C19   1.419828 A    
C18   C19   1.412588 A    
N4    H23   1.034284 S    
C19   C22   1.408356 A    
N11   H45   1.044615 S    
C20   C21   1.391546 A    
O7    C4    1.313992 A    
N3    C49   1.449539 S    
C14   H7    1.078044 S    
O5    C3    1.308879 A    
C23   C35   1.393291 A    
C2    C5    1.482382 S    
N4    H22   1.045715 S    
C27   C28   1.420244 A    
C25   C36   1.403734 A    
N7    H31   1.043812 S    
C52   H37   1.107074 S    
C43   C47   1.441049 A    
C44   C45   1.383171 A    
C48   N5    1.431574 S    
Cu2   O8    1.948119 S    
C53   H43   1.111469 S    
C28   C30   1.420048 A    
C40   C41   1.410554 A    
C51   H34   1.110160 S    
C23   H10   1.081266 S    
O3    Cu1   1.948119 S    
C32   N3    1.437804 S    
C30   C31   1.425859 A    
C25   H12   1.082580 S    
C41   C42   1.442236 A    
C14   C15   1.380493 A    
C39   N8    1.424916 S    
C49   H20   1.108804 S    
N3    H18   1.031280 S    
N1    C47   1.378970 A    
C6    C21   1.400510 A    
Cu2   N2    2.045759 S    
C7    C11   1.400665 A    
C31   C32   1.416559 A    
O1    C1    1.304743 A    
C22   H2    1.076607 S    
Cu1   O7    1.934985 S    
C9    H6    1.069716 S    
H9    C35   1.083147 S    
C1    C36   1.477038 S    
N6    C50   1.448204 S    
N8    H32   1.031949 S    
C42   C46   1.434276 A    
N7    H30   1.045056 S    
C10   C11   1.410411 A    
C50   H28   1.111459 S    
C7    C8    1.407854 A    
C38   H16   1.081309 S    
C20   H8    1.083922 S    
N10   C53   1.448696 S    
C7    H5    1.081459 S    
C8    N10   1.433976 S    
Cu1   N1    2.057613 S    
O3    C2    1.317470 A    
C28   C29   1.412430 A    
N8    C51   1.447638 S    
O8    C4    1.308436 A    
C51   H35   1.111960 S    
N5    H25   1.044829 S    
C37   C48   1.398651 A    
C52   H39   1.111065 S    
C21   H3    1.083191 S    
C37   N6    1.429877 S    
C49   H21   1.107279 S    
C53   H41   1.108368 S    
Cu1   O5    1.921362 S    
C40   H17   1.068430 S    
C11   C15   1.384688 A    
C26   C27   1.389570 A    
C26   H14   1.082975 S    
O1    Cu1   1.931738 S    
O2    Cu2   1.921363 S    
C10   C12   1.433219 A    
C49   H19   1.111262 S    
O6    C3    1.311996 A    
O4    Cu2   1.934985 S    
N1    C48   1.352729 A    
C17   H4    1.085347 S    
C6    C22   1.395444 A    
C29   C36   1.416021 A    
N9    H36   1.031110 S    
C38   C39   1.392628 A    
C9    C10   1.394346 A    
C18   C20   1.402728 A    
O2    C1    1.320980 A    
C45   C46   1.385492 A    
N11   H44   1.044688 S    
C24   C35   1.394972 A    
N6    H26   1.030437 S    
O4    C2    1.311749 A    
C29   C33   1.411244 A    
C50   H27   1.109351 S    
C38   N2    1.354651 A    
H15   C45   1.082102 S    
C4    C6    1.467637 S    
C50   H29   1.109725 S    
C43   C44   1.418718 A    
C13   C14   1.413672 A    
C27   H13   1.076117 S    
C24   C34   1.393223 A    
C46   N9    1.416556 S    
Cu2   O6    1.931737 S    
C39   C40   1.398360 A    
C12   C16   1.437866 A    
C17   C18   1.388975 A    
C12   C13   1.430539 A    
C47   N7    1.426650 S    
C41   C43   1.465298 A    
C23   C31   1.414674 A    
C3    C24   1.465021 S    
C15   H1    1.077246 S    
C53   H42   1.110003 S    
C34   H11   1.074808 S    
