data_str_m9_o7_o18_f0_sra.sym.27
_audit_creation_date              2012-12-11T17:36:15-0500
_audit_creation_method            fapswitch 2.2
_symmetry_space_group_name_H-M    P1
_symmetry_Int_Tables_number       1
_space_group_crystal_system       triclinic
_cell_length_a                    25.820133
_cell_length_b                    6.903183
_cell_length_c                    21.726213
_cell_angle_alpha                 90.000041
_cell_angle_beta                  96.078247
_cell_angle_gamma                 90.000057
_cell_volume                      3850.73379438

loop_
_atom_site_label
_atom_site_type_symbol
_atom_type_description
_atom_site_fract_x
_atom_site_fract_y
_atom_site_fract_z
_atom_type_partial_charge
O1    O     O_R   0.208650 0.594520 0.175450 -0.532637
O2    O     O_R   0.791350 0.405480 0.824550 -0.532636
O3    O     O_R   0.291350 0.094520 0.324550 -0.532636
O4    O     O_R   0.708650 0.905480 0.675450 -0.532636
O5    O     O_R   0.192980 0.260780 0.300160 -0.541183
O6    O     O_R   0.807020 0.739220 0.699840 -0.541183
O7    O     O_R   0.307020 0.760780 0.199840 -0.541183
O8    O     O_R   0.692980 0.239220 0.800160 -0.541180
C1    C     C_R   0.178847 0.432845 0.318496 0.699348
C2    C     C_R   0.821153 0.567155 0.681504 0.699350
C3    C     C_R   0.321153 0.932845 0.181504 0.699349
C4    C     C_R   0.678847 0.067155 0.818496 0.699349
O9    O     O_R   0.202550 0.264660 0.174420 -0.532104
O10   O     O_R   0.797450 0.735340 0.825580 -0.532105
O11   O     O_R   0.297450 0.764660 0.325580 -0.532105
O12   O     O_R   0.702550 0.235340 0.674420 -0.532105
O13   O     O_R   0.300990 0.096480 0.197920 -0.534540
O14   O     O_R   0.699010 0.903520 0.802080 -0.534543
O15   O     O_R   0.199010 0.596480 0.302080 -0.534540
O16   O     O_R   0.800990 0.403520 0.697920 -0.534541
C5    C     C_R   0.191102 0.433507 0.151142 0.758086
C6    C     C_R   0.808898 0.566493 0.848858 0.758085
C7    C     C_R   0.308898 0.933507 0.348858 0.758087
C8    C     C_R   0.691102 0.066493 0.651142 0.758088
O17   O     O_3   0.282290 0.427760 0.257860 -0.369258
O18   O     O_3   0.717710 0.572240 0.742140 -0.369258
O19   O     O_3   0.217710 0.927760 0.242140 -0.369258
O20   O     O_3   0.782290 0.072240 0.757860 -0.369258
V1    V     V_3+5 0.244010 0.152080 0.248540 1.475037
V2    V     V_3+5 0.755990 0.847920 0.751460 1.475034
V3    V     V_3+5 0.255990 0.652080 0.251460 1.475036
V4    V     V_3+5 0.744010 0.347920 0.748540 1.475037
C9    C     C_R   0.657980 0.059062 0.591532 -0.103778
C10   C     C_R   0.342020 0.940938 0.408468 -0.103778
C11   C     C_R   0.842020 0.559064 0.908468 -0.103777
C12   C     C_R   0.157980 0.440936 0.091532 -0.103777
C13   C     C_R   0.648126 0.089459 0.479998 -0.166358
C14   C     C_R   0.351874 0.910541 0.520002 -0.166358
C15   C     C_R   0.851875 0.589474 0.020001 -0.166358
C16   C     C_R   0.148125 0.410525 0.979999 -0.166358
C17   C     C_R   0.679854 0.090289 0.536025 0.258248
C18   C     C_R   0.320145 0.909710 0.463975 0.258248
C19   C     C_R   0.820146 0.590300 0.963974 0.258250
C20   C     C_R   0.179854 0.409698 0.036026 0.258249
C21   C     C_R   0.604040 0.027099 0.590245 -0.267707
C22   C     C_R   0.395960 0.972901 0.409755 -0.267707
C23   C     C_R   0.895960 0.527095 0.909755 -0.267707
C24   C     C_R   0.104041 0.472905 0.090245 -0.267707
C25   C     C_R   0.570795 0.027257 0.533516 0.095553
C26   C     C_R   0.429204 0.972743 0.466484 0.095554
C27   C     C_R   0.929205 0.527258 0.966484 0.095553
C28   C     C_R   0.070795 0.472742 0.033515 0.095553
C29   C     C_R   0.594229 0.059170 0.478225 0.082099
C30   C     C_R   0.405771 0.940830 0.521775 0.082099
C31   C     C_R   0.905772 0.559181 0.021775 0.082099
C32   C     C_R   0.094228 0.440819 0.978225 0.082099
C33   C     C_R   0.515363 0.998221 0.529595 0.068250
C34   C     C_R   0.484637 0.001779 0.470406 0.068250
C35   C     C_R   0.984637 0.498218 0.970406 0.068250
C36   C     C_R   0.015363 0.501783 0.029594 0.068250
C37   C     C_R   0.510392 0.033964 0.417186 -0.182927
C38   C     C_R   0.489608 0.966036 0.582814 -0.182927
C39   C     C_R   0.989609 0.533977 0.082814 -0.182927
C40   C     C_R   0.010391 0.466023 0.917186 -0.182927
C41   C     C_R   0.563884 0.061731 0.421204 -0.175325
C42   C     C_R   0.436116 0.938269 0.578796 -0.175325
C43   C     C_R   0.936116 0.561748 0.078796 -0.175325
C44   C     C_R   0.063884 0.438252 0.921204 -0.175325
H1    H     H_    0.581753 0.086140 0.378899 0.131552
H2    H     H_    0.418247 0.913860 0.621101 0.131552
H3    H     H_    0.918248 0.586165 0.121101 0.131552
H4    H     H_    0.081752 0.413834 0.878899 0.131552
H5    H     H_    0.410555 0.995014 0.365651 0.103427
H6    H     H_    0.589445 0.004987 0.634349 0.103427
H7    H     H_    0.089445 0.495025 0.134349 0.103427
H8    H     H_    0.910555 0.504976 0.865651 0.103427
H9    H     H_    0.665741 0.113758 0.437531 0.154716
H10   H     H_    0.334259 0.886242 0.562469 0.154716
H11   H     H_    0.834260 0.613781 0.062469 0.154716
H12   H     H_    0.165740 0.386217 0.937531 0.154716
H13   H     H_    0.490306 0.038927 0.371216 0.122849
H14   H     H_    0.509694 0.961073 0.628784 0.122849
H15   H     H_    0.009695 0.538946 0.128783 0.122849
H16   H     H_    0.990305 0.461054 0.871216 0.122849
C45   C     C_R   0.426065 0.793304 0.077640 -0.117707
C46   C     C_R   0.573926 0.206696 0.922348 -0.117707
C47   C     C_R   0.073938 0.293305 0.422364 -0.117706
C48   C     C_R   0.926063 0.706695 0.577638 -0.117706
H17   H     H_    0.443391 0.662578 0.061356 0.109823
H18   H     H_    0.556593 0.337422 0.938622 0.109818
H19   H     H_    0.056614 0.162581 0.438650 0.109826
H20   H     H_    0.943389 0.837420 0.561353 0.109825
C49   C     C_R   0.386826 0.778336 0.117621 -0.141668
C50   C     C_R   0.613166 0.221664 0.882368 -0.141670
C51   C     C_R   0.113177 0.278337 0.382383 -0.141666
C52   C     C_R   0.886824 0.721663 0.617619 -0.141666
H21   H     H_    0.374733 0.635761 0.131139 0.130581
H22   H     H_    0.625252 0.364239 0.868840 0.130566
H23   H     H_    0.125272 0.135763 0.368868 0.130589
H24   H     H_    0.874730 0.864237 0.631135 0.130587
C53   C     C_R   0.363443 0.945723 0.139550 -0.057747
C54   C     C_R   0.636557 0.054277 0.860450 -0.057749
C55   C     C_R   0.136557 0.445723 0.360449 -0.057749
C56   C     C_R   0.863443 0.554277 0.639551 -0.057749
C57   C     C_R   0.380555 0.127957 0.120276 -0.120229
C58   C     C_R   0.619453 0.872044 0.879736 -0.120225
C59   C     C_R   0.119441 0.627954 0.379720 -0.120233
C60   C     C_R   0.880558 0.372045 0.620279 -0.120232
H25   H     H_    0.363664 0.260379 0.135869 0.140735
H26   H     H_    0.636351 0.739621 0.864152 0.140757
H27   H     H_    0.136330 0.760375 0.364123 0.140728
H28   H     H_    0.863668 0.239625 0.635873 0.140731
C61   C     C_R   0.419657 0.142427 0.080409 -0.114950
C62   C     C_R   0.580351 0.857573 0.919602 -0.114951
C63   C     C_R   0.080340 0.642425 0.419586 -0.114949
C64   C     C_R   0.919659 0.357575 0.580412 -0.114950
H29   H     H_    0.431889 0.284396 0.066377 0.110448
H30   H     H_    0.568125 0.715604 0.933644 0.110457
H31   H     H_    0.068105 0.784393 0.433615 0.110446
H32   H     H_    0.931893 0.215607 0.566382 0.110447
C65   C     C_R   0.442676 0.975518 0.058785 0.120108
C66   C     C_R   0.557323 0.024483 0.941214 0.120107
C67   C     C_R   0.057324 0.475517 0.441215 0.120107
C68   C     C_R   0.942676 0.524483 0.558786 0.120106
C69   C     C_1   0.483124 0.992313 0.017316 -0.041708
C70   C     C_1   0.516875 0.007688 0.982683 -0.041708
C71   C     C_1   0.016875 0.492312 0.482683 -0.041708
C72   C     C_1   0.983125 0.507688 0.517317 -0.041708
Br1   Br    Br    0.246813 0.865580 0.465171 -0.561033
Br2   Br    Br    0.753186 0.134420 0.534829 -0.561034
Br3   Br    Br    0.253186 0.365559 0.034829 -0.561036
Br4   Br    Br    0.746814 0.634438 0.965171 -0.561043

loop_
_geom_bond_atom_site_label_1
_geom_bond_atom_site_label_2
_ccdc_geom_bond_type
O17   V3    S    
C48   C52   A    
O1    C5    A    
C47   H19   S    
O19   V1    S    
C9    C21   A    
O3    C7    A    
C10   C18   A    
C48   C68   A    
C11   C23   A    
C25   C33   A    
C33   C38   A    
C5    C12   S    
C20   Br3   S    
O7    C3    A    
C6    C11   S    
O5    C1    A    
C26   C30   A    
C58   C62   A    
C36   C39   A    
C40   C44   A    
C57   C61   A    
C19   Br4   S    
C23   H8    S    
C14   C18   A    
C58   H26   S    
C17   Br2   S    
O4    C8    A    
C51   H23   S    
C44   H4    S    
C50   H22   S    
O1    V3    S    
O13   V1    S    
C31   C43   A    
O2    V4    S    
O3    V1    S    
C40   H16   S    
C46   C50   A    
C65   C69   S    
C45   C49   A    
C1    O15   A    
C15   C31   A    
C48   H20   S    
C2    O16   A    
C16   C32   A    
C47   C51   A    
O2    C6    A    
C16   H12   S    
C45   C65   A    
C10   C22   A    
C11   C19   A    
C16   C20   A    
C43   H3    S    
C1    C55   S    
C68   C72   S    
C13   C29   A    
C34   C37   A    
O11   C7    A    
C38   H14   S    
O15   V3    S    
C35   C36   A    
O12   C8    A    
C53   C57   A    
C24   H7    S    
O10   V2    S    
C51   C55   A    
O5    V1    S    
O17   V1    S    
C39   C43   A    
C63   C67   A    
C38   C42   A    
O19   V3    S    
C26   C34   A    
O20   V4    S    
O7    V3    S    
C46   H18   S    
C49   C53   A    
C45   H17   S    
O18   V4    S    
C15   C19   A    
C14   H10   S    
C32   C44   A    
C13   H9    S    
C60   H28   S    
C39   H15   S    
C21   H6    S    
O8    V4    S    
C66   C70   S    
C4    C54   S    
C37   C41   A    
C67   C71   S    
C14   C30   A    
C21   C25   A    
O8    C4    A    
C7    C10   S    
C35   C40   A    
O9    C5    A    
C3    C53   S    
C59   C63   A    
C62   H30   S    
C61   H29   S    
O6    V2    S    
O18   V2    S    
C63   H31   S    
C52   C56   A    
C69   C70   T    
C12   C20   A    
C27   C35   A    
C71   C72   T    
C49   H21   S    
C56   C60   A    
C29   C41   A    
O16   V4    S    
O9    V1    S    
C57   H25   S    
C3    O13   A    
C64   C68   A    
C59   H27   S    
O6    C2    A    
C23   C27   A    
O11   V3    S    
C30   C42   A    
O12   V4    S    
C22   C26   A    
C8    C9    S    
C9    C17   A    
O10   C6    A    
C2    C56   S    
C37   H13   S    
C47   C67   A    
C60   C64   A    
C33   C34   A    
C42   H2    S    
C41   H1    S    
C52   H24   S    
O20   V2    S    
C12   C24   A    
C18   Br1   S    
C27   C31   A    
C13   C17   A    
C46   C66   A    
C25   C29   A    
O14   V2    S    
C62   C66   A    
C64   H32   S    
C24   C28   A    
C61   C65   A    
C50   C54   A    
C28   C36   A    
C54   C58   A    
C4    O14   A    
C55   C59   A    
C22   H5    S    
O4    V2    S    
C28   C32   A    
C15   H11   S    
