data_str_m2_o16_o22_f0_pcu.sym.38
_audit_creation_date              2012-10-26T20:02:59-0400
_audit_creation_method            fapswitch 2.2
_symmetry_space_group_name_H-M    P1
_symmetry_Int_Tables_number       1
_space_group_crystal_system       triclinic
_cell_length_a                    10.734423
_cell_length_b                    12.318485
_cell_length_c                    13.159215
_cell_angle_alpha                 117.123806
_cell_angle_beta                  76.99442
_cell_angle_gamma                 101.824173
_cell_volume                      1498.43560879

loop_
_atom_site_label
_atom_site_type_symbol
_atom_type_description
_atom_site_fract_x
_atom_site_fract_y
_atom_site_fract_z
_atom_type_partial_charge
C1    C     C_R   0.514491 0.854529 0.285941 0.533041
C2    C     C_R   0.493995 0.571540 0.001211 0.022496
C3    C     C_R   0.457686 0.655563 0.117185 0.004158
C4    C     C_R   0.740240 0.000577 0.500333 0.581720
C5    C     C_R   0.447491 0.444889 0.970309 0.027436
C6    C     C_R   0.344467 0.410567 0.043069 0.049481
C7    C     C_R   0.293892 0.499950 0.147923 -0.135833
C8    C     C_R   0.351207 0.620433 0.185691 -0.118965
C9    C     C_R   0.505398 0.350489 0.873074 -0.139181
C10   C     C_R   0.343249 0.196678 0.905048 -0.136759
C11   C     C_R   0.527231 0.773215 0.161395 -0.028087
C12   C     C_3   0.122317 0.000492 0.502261 -0.020810
C13   C     C_R   0.708038 0.348026 0.329576 -0.133418
C14   C     C_R   0.323524 0.758544 0.644501 0.047636
C15   C     C_R   0.283369 0.660637 0.674382 -0.152788
C16   C     C_R   0.480819 0.145540 0.713859 0.540636
C17   C     C_R   0.348725 0.556960 0.618970 -0.133158
C18   C     C_R   0.456378 0.550271 0.532958 -0.005938
C19   C     C_R   0.493408 0.652763 0.504668 0.181728
C20   C     C_R   0.528534 0.446331 0.474054 -0.009848
C21   C     C_R   0.635287 0.447373 0.388418 0.033823
C22   C     C_R   0.668818 0.547250 0.361411 -0.177252
C23   C     C_3   0.080385 0.128282 0.587970 -0.195089
C24   C     C_R   0.599385 0.647268 0.417901 -0.100949
C25   C     C_R   0.500469 0.340790 0.496207 0.031756
C26   C     C_R   0.675732 0.247755 0.355816 0.083423
C27   C     C_R   0.260043 0.000648 0.501535 0.535599
C28   C     C_3   0.956928 0.963364 0.375709 0.130840
C29   C     C_3   0.101324 0.971507 0.379423 -0.182714
C30   C     C_3   0.937236 0.130694 0.587500 0.134558
C31   C     C_3   0.894706 0.906157 0.541969 -0.317829
C32   C     C_3   0.879146 0.002252 0.500525 0.064184
C33   C     C_3   0.564022 0.553809 0.793103 -0.297038
C34   C     C_3   0.037310 0.902745 0.539671 -0.269675
C35   C     C_3   0.691014 0.507270 0.717808 -0.414092
C36   C     C_3   0.730067 0.790598 0.887387 -0.271314
C37   C     C_3   0.791317 0.923891 0.943948 -0.451807
C38   C     C_R   0.293726 0.286812 0.010230 -0.128131
C39   C     C_R   0.447915 0.229212 0.835144 -0.005680
C40   C     C_R   0.618518 0.812397 0.087234 -0.117375
C41   C     C_R   0.638185 0.740226 0.967588 0.031373
C42   C     C_R   0.571820 0.619057 0.922468 0.019295
Cl1   Cl    Cl    0.936081 0.046425 0.299854 -0.624409
Cl2   Cl    Cl    0.922008 0.259450 0.563292 -0.593501
Cu1   Cu    Cu3+1 0.529690 0.098270 0.475420 0.975793
Cu2   Cu    Cu3+1 0.470310 0.901730 0.524580 0.903282
H1    H     H_    0.052818 0.920270 0.627007 0.131743
H2    H     H_    0.308942 0.686108 0.268285 0.144329
H3    H     H_    0.730759 0.170443 0.310062 0.186350
H4    H     H_    0.750026 0.548294 0.295564 0.106975
H5    H     H_    0.789372 0.347895 0.263555 0.104371
H6    H     H_    0.421304 0.332159 0.559896 0.115833
H7    H     H_    0.271948 0.838453 0.687750 0.121235
H8    H     H_    0.313397 0.483917 0.645493 0.107500
H9    H     H_    0.201156 0.665050 0.740635 0.114023
H10   H     H_    0.632698 0.718376 0.390191 0.181475
H11   H     H_    0.137776 0.882847 0.315854 0.083783
H12   H     H_    0.883903 0.149140 0.675666 0.106042
H13   H     H_    0.157971 0.044017 0.353917 0.194953
H14   H     H_    0.142320 0.200375 0.564690 0.181788
H15   H     H_    0.842455 0.929274 0.631286 0.130134
H16   H     H_    0.852693 0.812664 0.485455 0.130289
H17   H     H_    0.063943 0.809371 0.478334 0.143272
H18   H     H_    0.758796 0.506053 0.769754 0.173715
H19   H     H_    0.672270 0.412410 0.650695 0.206178
H20   H     H_    0.738151 0.565984 0.672921 0.145643
H21   H     H_    0.484442 0.477587 0.772738 0.143058
H22   H     H_    0.534897 0.617488 0.766772 0.146683
H23   H     H_    0.094822 0.149676 0.676671 0.081812
H24   H     H_    0.715862 0.987008 0.989367 0.155337
H25   H     H_    0.854463 0.934542 0.004977 0.178032
H26   H     H_    0.851849 0.949815 0.876135 0.131302
H27   H     H_    0.810147 0.732888 0.843308 0.153682
H28   H     H_    0.678081 0.785121 0.820944 0.150265
H29   H     H_    0.296988 0.102985 0.876515 0.119897
H30   H     H_    0.213021 0.475911 0.203087 0.117644
H31   H     H_    0.213468 0.260399 0.064305 0.125702
H32   H     H_    0.594228 0.369705 0.823795 0.140724
H33   H     H_    0.672587 0.901933 0.124593 0.154236
H34   H     H_    0.922096 0.865940 0.322187 0.105776
N1    N     N_R   0.574690 0.246280 0.438200 -0.240028
N2    N     N_R   0.426100 0.754320 0.561190 -0.234778
O1    O     O_R   0.537340 0.972510 0.318130 -0.498474
O2    O     O_R   0.487200 0.806530 0.359650 -0.521879
O3    O     O_R   0.707380 0.082980 0.479220 -0.394800
O4    O     O_R   0.657240 0.917000 0.520740 -0.549502
O5    O     O_R   0.512800 0.193470 0.640350 -0.510099
O6    O     O_R   0.462660 0.027490 0.681870 -0.505838
O7    O     O_R   0.342760 0.083000 0.479260 -0.513991
O8    O     O_R   0.292620 0.917020 0.520780 -0.515013

loop_
_geom_bond_atom_site_label_1
_geom_bond_atom_site_label_2
_ccdc_geom_bond_type
C12   C29   S    
C41   C42   A    
C31   H15   S    
C1    C11   S    
C7    C8    A    
Cu1   Cu2   S    
C1    O2    A    
C12   C23   S    
C33   C42   S    
C28   C29   S    
Cu1   O5    S    
C5    C6    A    
C4    O4    A    
C20   C25   A    
C35   H19   S    
C9    C39   A    
C27   O8    A    
C18   C19   A    
C23   H23   S    
Cu2   N2    S    
C29   H13   S    
C16   O5    A    
C6    C38   A    
C27   O7    A    
C35   H18   S    
C19   N2    A    
Cu1   O7    S    
C22   H4    S    
C13   H5    S    
C21   C22   A    
C25   N1    A    
C31   H16   S    
C30   Cl2   S    
C36   C41   S    
Cu1   O1    S    
C6    C7    A    
Cu2   O6    S    
C23   H14   S    
C40   H33   S    
C12   C27   S    
C23   C30   S    
C28   C32   S    
C3    C8    A    
C26   H3    S    
C4    O3    A    
C35   H20   S    
C10   C39   A    
C15   H9    S    
Cu1   O3    S    
C8    H2    S    
C5    C9    A    
C10   H29   S    
C31   C32   S    
C17   C18   A    
C31   C34   S    
C13   C21   A    
C4    C32   S    
C36   H28   S    
Cu2   O2    S    
C40   C41   A    
C29   H11   S    
C26   N1    A    
C37   H25   S    
C22   C24   A    
C13   C26   A    
C2    C5    A    
C1    O1    A    
C14   N2    A    
C12   C34   S    
C33   H21   S    
C15   C17   A    
C36   C37   S    
Cu1   N1    S    
C7    H30   S    
Cu2   O8    S    
C38   H31   S    
C24   H10   S    
C28   Cl1   S    
C10   C38   A    
C19   C24   A    
C25   H6    S    
C30   C32   S    
C2    C42   A    
C30   H12   S    
C34   H17   S    
C33   C35   S    
C2    C3    A    
C18   C20   A    
C9    H32   S    
C11   C40   A    
C28   H34   S    
C3    C11   A    
C36   H27   S    
C16   C39   S    
C14   H7    S    
C20   C21   A    
C37   H26   S    
C16   O6    A    
C14   C15   A    
C34   H1    S    
C37   H24   S    
C17   H8    S    
C33   H22   S    
Cu2   O4    S    
