data_str_m3_o14_o18_f0_pcu.sym.47
_audit_creation_date              2012-12-10T17:44:36-0500
_audit_creation_method            fapswitch 2.2
_symmetry_space_group_name_H-M    P1
_symmetry_Int_Tables_number       1
_space_group_crystal_system       triclinic
_cell_length_a                    9.954849
_cell_length_b                    10.675871
_cell_length_c                    15.305743
_cell_angle_alpha                 90.860024
_cell_angle_beta                  67.825053
_cell_angle_gamma                 88.478803
_cell_volume                      1505.24868281

loop_
_atom_site_label
_atom_site_type_symbol
_atom_type_description
_atom_site_fract_x
_atom_site_fract_y
_atom_site_fract_z
_atom_type_partial_charge
C1    C     C_R   0.497050 0.739141 0.500707 0.855702
C2    C     C_R   0.746166 0.493090 0.024258 0.220865
C3    C     C_R   0.610211 0.442075 0.077488 0.099114
C4    C     C_R   0.408910 0.498544 0.676530 0.835311
C5    C     C_R   0.835829 0.536773 0.069433 -0.213897
C6    C     C_R   0.788690 0.535546 0.167477 -0.183881
C7    C     C_R   0.559752 0.454233 0.175619 -0.221210
C8    C     C_R   0.548060 0.860740 0.327378 -0.139704
C9    C     C_R   0.599929 0.917882 0.239747 0.067649
C10   C     C_R   0.652964 0.038004 0.234201 -0.323614
C11   C     C_R   0.642781 0.104961 0.315909 0.000219
C12   C     C_R   0.440823 0.424399 0.902442 0.064873
C13   C     C_R   0.564938 0.055498 0.406593 0.093515
C14   C     C_R   0.533429 0.928480 0.411004 0.011773
C15   C     C_R   0.489004 0.871689 0.499198 -0.134219
C16   C     C_R   0.506922 0.260615 0.491785 0.867994
C17   C     C_R   0.438393 0.941065 0.585083 0.126401
C18   C     C_R   0.442373 0.071674 0.580818 -0.025030
C19   C     C_R   0.512302 0.126897 0.492654 -0.185523
C20   C     C_R   0.782837 0.653891 0.632282 -0.167643
C21   C     C_R   0.813238 0.721438 0.700972 -0.219186
C22   C     C_R   0.952694 0.720757 0.699838 -0.181810
C23   C     C_R   0.317146 0.351205 0.947347 0.000643
C24   C     C_R   0.062283 0.650807 0.631088 -0.150308
C25   C     C_R   0.033309 0.573881 0.565267 0.166358
C26   C     C_R   0.888865 0.574427 0.565476 0.175889
C27   C     C_R   0.968619 0.432988 0.435223 -0.075046
C28   C     C_R   0.590958 0.501222 0.323689 0.827865
C29   C     C_R   0.110847 0.431832 0.435822 -0.078803
C30   C     C_R   0.356334 0.472699 0.777371 -0.128486
C31   C     C_R   0.648560 0.497334 0.220768 -0.047633
C32   C     C_R   0.205261 0.352293 0.909787 0.018371
C33   C     C_R   0.229780 0.408226 0.822703 -0.167374
C34   C     C_R   0.551565 0.431401 0.938407 0.078739
C35   C     C_R   0.451336 0.491224 0.822578 -0.232227
C36   C     C_3   0.242199 0.147990 0.041067 -0.353418
C37   C     C_3   0.294070 0.063142 0.952532 -0.863019
C38   C     C_3   0.384303 0.876464 0.680117 -0.369929
C39   C     C_3   0.486640 0.896917 0.731732 -0.897286
C40   C     C_2   0.606000 0.851645 0.152747 0.394793
C41   C     C_2   0.742804 0.208220 0.301058 0.386961
C42   C     C_2   0.376467 0.152259 0.667689 0.417515
C43   C     C_2   0.059122 0.304490 0.961465 0.373200
C44   C     C_2   0.403729 0.235471 0.155633 0.318964
C45   C     C_R   0.521982 0.393456 0.031145 -0.055279
C46   C     C_R   0.409941 0.306142 0.071351 -0.047817
C47   C     C_R   0.317010 0.274598 0.023203 0.109272
C48   C     C_R   0.690463 0.476915 0.885006 -0.186308
C49   C     C_R   0.788177 0.503507 0.927148 -0.167926
H1    H     H_    0.941304 0.573180 0.029020 0.130133
H2    H     H_    0.196296 0.375960 0.383199 0.190439
H3    H     H_    0.858731 0.569450 0.201610 0.162106
H4    H     H_    0.893106 0.539238 0.884638 0.137603
H5    H     H_    0.151474 0.399781 0.789512 0.205728
H6    H     H_    0.538084 0.554789 0.791164 0.149566
H7    H     H_    0.727016 0.489697 0.809837 0.161479
H8    H     H_    0.262880 0.102958 0.896261 0.306307
H9    H     H_    0.413967 0.049490 0.925945 0.255437
H10   H     H_    0.244517 0.970172 0.969763 0.257881
H11   H     H_    0.267174 0.092533 0.093761 0.253752
H12   H     H_    0.515677 0.764572 0.330087 0.171553
H13   H     H_    0.122785 0.158514 0.071122 0.200920
H14   H     H_    0.600513 0.883447 0.681565 0.265289
H15   H     H_    0.473291 0.993286 0.762019 0.270622
H16   H     H_    0.463962 0.829861 0.789968 0.246527
H17   H     H_    0.272784 0.910412 0.724676 0.252037
H18   H     H_    0.375394 0.773996 0.672748 0.167274
H19   H     H_    0.660958 0.892787 0.084495 0.062421
H20   H     H_    0.760481 0.270461 0.242829 0.042376
H21   H     H_    0.437284 0.228035 0.680821 0.062367
H22   H     H_    0.010308 0.314328 0.037686 0.054081
H23   H     H_    0.709126 0.077215 0.165413 0.125791
H24   H     H_    0.503413 0.204734 0.162862 0.075295
H25   H     H_    0.949638 0.380772 0.380677 0.213716
H26   H     H_    0.676498 0.668661 0.632681 0.207122
H27   H     H_    0.729091 0.776830 0.754702 0.162166
H28   H     H_    0.448087 0.435825 0.217813 0.176550
H29   H     H_    0.976822 0.776827 0.751301 0.157013
H30   H     H_    0.168713 0.660608 0.630516 0.195652
N1    N     N_R   0.856800 0.501200 0.500850 -0.125454
N2    N     N_R   0.142390 0.501280 0.500880 -0.126847
O1    O     O_R   0.385310 0.683220 0.500000 -0.634485
O2    O     O_2   0.819403 0.214775 0.346856 -0.552366
O3    O     O_2   0.252305 0.137733 0.722675 -0.559579
O4    O     O_2   0.990025 0.256890 0.919304 -0.541533
O5    O     O_2   0.287840 0.217369 0.219612 -0.574703
O6    O     O_R   0.614640 0.683250 0.500010 -0.616830
O7    O     O_R   0.319840 0.499980 0.632240 -0.632541
O8    O     O_R   0.549160 0.500000 0.632250 -0.627179
O9    O     O_R   0.385360 0.316750 0.499990 -0.597552
O10   O     O_R   0.614690 0.316780 0.500000 -0.561698
O11   O     O_R   0.450840 0.500000 0.367750 -0.610553
O12   O     O_R   0.680160 0.500020 0.367760 -0.606196
O13   O     O_2   0.547222 0.751969 0.156164 -0.570868
Zn1   Zn    Zn3+2 0.346880 0.499980 0.499990 0.954913
Zn2   Zn    Zn3+2 0.653120 0.500020 0.500010 0.968856

loop_
_geom_bond_atom_site_label_1
_geom_bond_atom_site_label_2
_ccdc_geom_bond_type
C1    O6    A    
C16   O9    A    
C27   C29   A    
O9    Zn1   S    
C45   C46   A    
C39   H15   S    
C12   C23   A    
C30   C35   A    
C36   C37   S    
C3    C7    A    
C18   C42   S    
C38   C39   S    
N2    Zn1   S    
C44   O5    D    
C41   O2    D    
C42   H21   S    
C36   C47   S    
C15   C17   A    
C18   C19   A    
O10   Zn2   S    
C38   H17   S    
C8    C9    A    
C43   H22   S    
C1    C15   S    
N1    Zn2   S    
C27   H25   S    
C9    C10   A    
C37   H9    S    
C8    H12   S    
C7    H28   S    
C6    C31   A    
O7    Zn1   S    
C13   C14   A    
C25   N2    A    
C39   H16   S    
C36   H13   S    
C44   C46   S    
C7    C31   A    
C13   C19   A    
C35   H6    S    
C43   O4    D    
C42   O3    D    
C24   C25   A    
C22   H29   S    
C27   N1    A    
C1    O1    A    
C3    C45   A    
O11   Zn1   S    
C26   N1    A    
C20   H26   S    
C28   O12   A    
C29   N2    A    
C2    C49   A    
C24   H30   S    
C21   H27   S    
O6    Zn2   S    
C17   C18   A    
C28   O11   A    
C34   C45   A    
C38   H18   S    
C12   C35   A    
C37   H10   S    
C48   C49   A    
O12   Zn2   S    
C22   C24   A    
C5    H1    S    
C2    C5    A    
C34   C48   A    
C23   C47   A    
C12   C34   A    
C41   H20   S    
C4    O8    A    
C29   H2    S    
C33   H5    S    
C48   H7    S    
C46   C47   A    
C8    C14   A    
O1    Zn1   S    
C30   C33   A    
C28   C31   S    
C40   O13   D    
C36   H11   S    
C4    O7    A    
C39   H14   S    
C23   C32   A    
O8    Zn2   S    
C2    C3    A    
C25   C26   A    
C32   C33   A    
C11   C13   A    
C5    C6    A    
C20   C26   A    
C16   C19   S    
C49   H4    S    
C32   C43   S    
C11   C41   S    
C17   C38   S    
C9    C40   S    
C44   H24   S    
C37   H8    S    
C10   C11   A    
C20   C21   A    
C16   O10   A    
C40   H19   S    
C14   C15   A    
C6    H3    S    
C21   C22   A    
C4    C30   S    
C10   H23   S    
