data_str_m2_o1_o28_f0_pcu.sym.37
_audit_creation_date              2012-10-26T20:43:32-0400
_audit_creation_method            fapswitch 2.2
_symmetry_space_group_name_H-M    P1
_symmetry_Int_Tables_number       1
_space_group_crystal_system       triclinic
_cell_length_a                    10.928142
_cell_length_b                    9.555136
_cell_length_c                    23.507686
_cell_angle_alpha                 89.993467
_cell_angle_beta                  92.446877
_cell_angle_gamma                 90.030559
_cell_volume                      2452.43138104

loop_
_atom_site_label
_atom_site_type_symbol
_atom_type_description
_atom_site_fract_x
_atom_site_fract_y
_atom_site_fract_z
_atom_type_partial_charge
C1    C     C_R   0.262485 0.500002 0.503501 0.602986
C2    C     C_R   0.460102 0.380622 0.703484 0.235960
C3    C     C_R   0.392212 0.480270 0.237305 0.003423
C4    C     C_R   0.463155 0.385923 0.762901 0.000907
C5    C     C_R   0.501976 0.507158 0.210406 0.176002
C6    C     C_R   0.498486 0.508380 0.791723 0.178919
C7    C     C_R   0.062902 0.372069 0.505024 0.238571
C8    C     C_R   0.936759 0.627759 0.493419 0.230838
C9    C     C_R   0.936767 0.371928 0.494224 0.229917
C10   C     C_R   0.062871 0.628030 0.504263 0.233458
C11   C     C_R   0.871485 0.499851 0.492750 -0.071698
C12   C     C_R   0.737365 0.499982 0.496102 0.574548
C13   C     C_R   0.128202 0.500068 0.506085 -0.059445
C14   C     C_R   0.424753 0.074041 0.462628 0.350373
C15   C     C_R   0.575723 0.925895 0.537187 0.356176
C16   C     C_R   0.575480 0.074269 0.537308 0.376671
C17   C     C_R   0.424816 0.925695 0.462576 0.351299
C18   C     C_R   0.499138 0.500148 0.391331 0.581999
C19   C     C_R   0.497688 0.499720 0.609140 0.572501
C20   C     C_R   0.586263 0.433040 0.882488 0.455571
C21   C     C_R   0.431007 0.603165 0.119669 0.457657
C22   C     C_R   0.418866 0.592525 0.879644 0.457494
C23   C     C_R   0.609766 0.531967 0.243388 -0.035952
C24   C     C_R   0.577544 0.418978 0.122058 0.461557
C25   C     C_R   0.424598 0.604701 0.939544 0.005332
C26   C     C_R   0.588278 0.426736 0.062531 0.007263
C27   C     C_R   0.504150 0.513241 0.970957 -0.108398
C28   C     C_R   0.504487 0.512846 0.031022 -0.107173
C29   C     C_R   0.583124 0.421909 0.942282 0.004229
C30   C     C_R   0.420851 0.598287 0.059639 0.007009
C31   C     C_R   0.349369 0.699312 0.968845 0.237648
C32   C     C_R   0.675314 0.346402 0.033574 0.237221
C33   C     C_R   0.334144 0.680090 0.027597 0.235984
C34   C     C_R   0.530083 0.627171 0.760973 -0.041744
C35   C     C_R   0.659570 0.327714 0.974223 0.237096
C36   C     C_R   0.608055 0.528892 0.302612 -0.149447
C37   C     C_R   0.528322 0.623018 0.701736 -0.133083
C38   C     C_R   0.498655 0.501104 0.329384 0.038085
C39   C     C_R   0.495053 0.499875 0.672038 0.018947
C40   C     C_R   0.389854 0.478089 0.296630 0.243912
Cl1   Cl    Cl    0.248834 0.451788 0.328580 -0.435291
Cl2   Cl    Cl    0.326757 0.837628 0.412930 -0.351808
Cl3   Cl    Cl    0.405953 0.224162 0.671526 -0.450570
Cl4   Cl    Cl    0.132496 0.208938 0.523052 -0.301914
Cl5   Cl    Cl    0.866961 0.790427 0.474855 -0.336271
Cl6   Cl    Cl    0.867062 0.208451 0.476786 -0.333457
Cl7   Cl    Cl    0.132248 0.791877 0.521366 -0.320994
Cl8   Cl    Cl    0.325820 0.161582 0.413430 -0.335292
Cl9   Cl    Cl    0.676624 0.838132 0.585532 -0.411830
Cl10  Cl    Cl    0.674619 0.162280 0.586487 -0.351745
Cu1   Cu    Cu3+1 0.500000 0.640660 0.500000 1.186158
Cu2   Cu    Cu3+1 0.500000 0.359340 0.500000 1.220793
H1    H     H_    0.694731 0.554033 0.223054 0.187665
H2    H     H_    0.651577 0.030022 0.875833 0.390749
H3    H     H_    0.556925 0.722523 0.783080 0.179904
H4    H     H_    0.691971 0.548149 0.327629 0.152468
H5    H     H_    0.554089 0.716519 0.679271 0.206981
H6    H     H_    0.308655 0.461798 0.211958 0.192357
H7    H     H_    0.436690 0.294910 0.786983 0.181501
H8    H     H_    0.358499 0.996943 0.870801 0.390642
H9    H     H_    0.935488 0.379185 0.136284 0.390078
H10   H     H_    0.074575 0.649694 0.120513 0.392113
N1    N     N_R   0.501558 0.511923 0.852796 -0.414449
N2    N     N_R   0.503715 0.509987 0.149270 -0.410050
N3    N     N_R   0.500000 0.852070 0.500000 -0.286176
N4    N     N_R   0.500000 0.147930 0.500000 -0.285686
O1    O     O_R   0.319640 0.618740 0.500000 -0.437608
O2    O     O_2   0.373422 0.703693 0.148531 -0.373137
O3    O     O_2   0.328389 0.654852 0.848223 -0.372347
O4    O     O_2   0.635484 0.317474 0.152528 -0.376596
O5    O     O_2   0.173557 0.832112 0.905540 -0.146120
O6    O     O_2   0.282023 0.970700 0.979526 -0.184082
O7    O     O_3   0.396350 0.912576 0.888587 -0.483373
O8    O     O_2   0.803029 0.155408 0.096297 -0.151130
O9    O     O_2   0.916817 0.287637 0.026517 -0.169108
O10   O     O_3   0.858140 0.415179 0.118305 -0.495583
O11   O     O_2   0.209238 0.871542 0.086264 -0.148066
O12   O     O_R   0.680360 0.381260 0.500000 -0.446867
O13   O     O_2   0.093227 0.743251 0.011544 -0.169640
O14   O     O_3   0.150693 0.612143 0.104934 -0.486866
O15   O     O_2   0.835388 0.197729 0.916936 -0.143754
O16   O     O_2   0.730473 0.057250 0.987211 -0.183415
O17   O     O_3   0.613035 0.113617 0.892385 -0.483702
O18   O     O_R   0.680360 0.618740 0.500000 -0.440233
O19   O     O_R   0.319640 0.381260 0.500000 -0.429632
O20   O     O_R   0.499960 0.618810 0.417880 -0.468965
O21   O     O_R   0.500040 0.381190 0.582120 -0.429208
O22   O     O_R   0.500040 0.618810 0.582120 -0.492199
O23   O     O_R   0.499960 0.381190 0.417880 -0.464082
O24   O     O_2   0.675806 0.370901 0.853978 -0.369345
S1    S     S_3+6 0.295461 0.857508 0.935857 0.149330
S2    S     S_3+6 0.817005 0.295797 0.068428 0.151317
S3    S     S_3+6 0.193225 0.732167 0.057217 0.155352
S4    S     S_3+6 0.714521 0.170335 0.943091 0.150570

loop_
_geom_bond_atom_site_label_1
_geom_bond_atom_site_label_2
_ccdc_geom_bond_type
C25   C31   A    
C26   C32   A    
O16   S4    D    
C27   C29   A    
C34   C37   A    
C24   O4    S    
C18   O20   A    
H10   O14   S    
Cu2   O19   S    
C16   Cl10  S    
O13   S3    D    
C19   O21   A    
C15   C16   A    
C15   N3    A    
H8    O7    S    
C12   O18   A    
Cu1   N3    S    
O8    S2    D    
C8    Cl5   S    
C21   N2    A    
C22   N1    A    
C17   Cl2   S    
C2    C39   A    
C22   C25   A    
C12   O12   A    
C31   C33   A    
C22   O3    S    
C9    Cl6   S    
C24   N2    A    
C14   C17   A    
Cu2   O23   S    
Cu2   O12   S    
Cu1   O20   S    
H2    O17   S    
C23   H1    S    
C20   C29   A    
H9    O10   S    
C1    O19   A    
Cu1   Cu2   S    
C32   C35   A    
O7    S1    S    
C4    C6    A    
C19   O22   A    
O6    S1    D    
C14   Cl8   S    
O17   S4    S    
C20   O24   S    
C6    C34   A    
C5    N2    S    
C6    N1    S    
C2    C4    A    
C36   H4    S    
C5    C23   A    
C7    C13   A    
C2    Cl3   S    
C14   N4    A    
O5    S1    D    
Cu1   O1    S    
C7    Cl4   S    
C9    C11   A    
C19   C39   S    
O9    S2    D    
O10   S2    S    
C40   Cl1   S    
C3    C40   A    
C31   S1    S    
C21   O2    S    
C16   N4    A    
C10   Cl7   S    
Cu2   N4    S    
C35   S4    S    
C7    C9    A    
C30   C33   A    
C18   O23   A    
C26   C28   A    
Cu2   O21   S    
C24   C26   A    
C3    C5    A    
C10   C13   A    
C33   S3    S    
Cu1   O22   S    
C11   C12   S    
C25   C27   A    
C21   C30   A    
C29   C35   A    
C17   N3    A    
C20   N1    A    
C36   C38   A    
C18   C38   S    
C28   C30   A    
C37   C39   A    
C38   C40   A    
O15   S4    D    
C32   S2    S    
C8    C11   A    
C4    H7    S    
O11   S3    D    
C1    O1    A    
C15   Cl9   S    
C3    H6    S    
C34   H3    S    
C1    C13   S    
C8    C10   A    
C23   C36   A    
C27   C28   A    
O14   S3    S    
Cu1   O18   S    
C37   H5    S    
