data_str_m4_o15_o24_f0_acs.sym.7
_audit_creation_date              2012-12-11T14:28:31-0500
_audit_creation_method            fapswitch 2.2
_symmetry_space_group_name_H-M    P1
_symmetry_Int_Tables_number       1
_space_group_crystal_system       triclinic
_cell_length_a                    10.959206
_cell_length_b                    19.421645
_cell_length_c                    18.743438
_cell_angle_alpha                 90.332513
_cell_angle_beta                  90.500326
_cell_angle_gamma                 89.924776
_cell_volume                      3989.23975091

loop_
_atom_site_label
_atom_site_type_symbol
_atom_type_description
_atom_site_fract_x
_atom_site_fract_y
_atom_site_fract_z
_atom_type_partial_charge
C1    C     C_R   0.318769 0.963129 0.644204 0.557411
C2    C     C_3   0.215099 0.745768 0.048813 -0.139495
C3    C     C_3   0.052830 0.190745 0.968197 0.058965
C4    C     C_3   0.591802 0.294468 0.467833 0.052421
C5    C     C_3   0.608813 0.312821 0.040737 0.049902
C6    C     C_3   0.504259 0.705337 0.522178 0.047154
C7    C     C_3   0.614793 0.686791 0.957902 0.048900
C8    C     C_3   0.178364 0.750258 0.513424 -0.098369
C9    C     C_3   0.186313 0.811469 0.005632 -0.171445
C10   C     C_3   0.134711 0.207221 0.494591 -0.152495
C11   C     C_3   0.186727 0.187179 0.993591 -0.172797
C12   C     C_3   0.678416 0.250484 0.513389 -0.097638
C13   C     C_3   0.158316 0.274756 0.535851 -0.115752
C14   C     C_3   0.718021 0.280759 0.001343 -0.130397
C15   C     C_3   0.634797 0.707249 0.494598 -0.152330
C16   C     C_3   0.721646 0.719826 0.999590 -0.128271
C17   C     C_3   0.081286 0.748143 0.572149 0.026825
C18   C     C_3   0.150178 0.765639 0.940775 0.012285
C19   C     C_3   0.089652 0.249747 0.430311 0.018474
C20   C     C_3   0.151427 0.231776 0.059406 0.007968
C21   C     C_3   0.581373 0.248182 0.572130 0.027349
C22   C     C_3   0.631510 0.262039 0.938898 0.025483
C23   C     C_3   0.589651 0.749745 0.430314 0.019067
C24   C     C_3   0.214135 0.253826 0.952248 -0.141033
C25   C     C_3   0.633621 0.736548 0.060907 0.022065
C26   C     C_3   0.995601 0.793687 0.527075 -0.147135
C27   C     C_3   0.016706 0.763674 0.965345 -0.120964
C28   C     C_3   0.957875 0.246479 0.456585 -0.137616
C29   C     C_3   0.017461 0.233868 0.034313 -0.122032
C30   C     C_3   0.495413 0.293621 0.527100 -0.147294
C31   C     C_3   0.521945 0.295265 0.977849 -0.145310
C32   C     C_3   0.457888 0.746409 0.456600 -0.137825
C33   C     C_3   0.526206 0.702451 0.020027 -0.147751
C34   C     C_3   0.941978 0.726863 0.494560 -0.163935
C35   C     C_3   0.624494 0.183640 0.481408 -0.078612
C36   C     C_3   0.047346 0.698314 0.008220 -0.139797
C37   C     C_3   0.981521 0.314754 0.498706 -0.138300
C38   C     C_3   0.046351 0.300098 0.993440 -0.141857
C39   C     C_3   0.442121 0.226700 0.494580 -0.163769
C40   C     C_3   0.496980 0.224492 0.011680 -0.158178
C41   C     C_3   0.481419 0.814700 0.498709 -0.138266
C42   C     C_3   0.498392 0.773145 0.987035 -0.155330
C43   C     C_3   0.027484 0.681806 0.540661 -0.103303
C44   C     C_3   0.180662 0.700378 0.983638 -0.097458
C45   C     C_3   0.113687 0.316944 0.471417 -0.097241
C46   C     C_3   0.691116 0.210163 0.035187 -0.096726
C47   C     C_3   0.180311 0.297698 0.018238 -0.097978
C48   C     C_3   0.527915 0.181764 0.540624 -0.103145
C49   C     C_3   0.605461 0.191706 0.972317 -0.076811
C50   C     C_3   0.613572 0.816961 0.471404 -0.097157
C51   C     C_3   0.604743 0.806731 0.028302 -0.081535
C52   C     C_2   0.130947 0.851642 0.419913 0.581463
C53   C     C_2   0.983965 0.863813 0.068570 0.585654
C54   C     C_2   0.956122 0.144414 0.561335 0.579317
C55   C     C_2   0.981774 0.137770 0.927356 0.581492
C56   C     C_2   0.630672 0.351771 0.419906 0.579793
C57   C     C_3   0.658291 0.774810 0.535842 -0.115771
C58   C     C_2   0.616072 0.371820 0.092097 0.575504
C59   C     C_2   0.456261 0.644372 0.561355 0.579988
C60   C     C_2   0.632326 0.629573 0.905123 0.574543
C61   C     C_3   0.692015 0.790303 0.966299 -0.101347
C62   C     C_3   0.038449 0.728637 0.436663 0.020208
C63   C     C_3   0.082556 0.744057 0.072350 0.040020
C64   C     C_3   0.027471 0.272501 0.562666 0.024597
C65   C     C_R   0.315341 0.937097 0.862505 0.522445
C66   C     C_3   0.081294 0.256179 0.928371 0.039445
C67   C     C_3   0.538541 0.228668 0.436648 0.020143
C68   C     C_3   0.582924 0.243522 0.073277 0.030758
C69   C     C_3   0.527464 0.772486 0.562670 0.024483
C70   C     C_3   0.585722 0.756126 0.926297 0.028602
C71   C     C_R   0.322582 0.019129 0.429815 0.010051
C72   C     C_R   0.315228 0.039752 0.062623 -0.045094
C73   C     C_R   0.322175 0.985639 0.571820 -0.023464
C74   C     C_R   0.316084 0.960575 0.937147 -0.044370
C75   C     C_R   0.822583 0.519156 0.429826 0.010882
C76   C     C_R   0.319081 0.038417 0.356527 0.568534
C77   C     C_R   0.823919 0.538493 0.063418 -0.022350
C78   C     C_R   0.822172 0.485679 0.571839 -0.023255
C79   C     C_R   0.824481 0.460326 0.937388 -0.028461
C80   C     C_R   0.545191 0.991071 0.427708 -0.082863
C81   C     C_R   0.537612 0.048523 0.053864 -0.104826
C82   C     C_R   0.548034 0.005462 0.574810 -0.089077
C83   C     C_R   0.537950 0.947560 0.952408 -0.110948
C84   C     C_R   0.045180 0.491069 0.427727 -0.082471
C85   C     C_R   0.053488 0.535308 0.063644 -0.095642
C86   C     C_R   0.048025 0.505503 0.574828 -0.088624
C87   C     C_R   0.314535 0.062967 0.137479 0.524467
C88   C     C_R   0.051486 0.455006 0.944579 -0.103352
C89   C     C_R   0.655165 0.989232 0.464840 -0.147837
C90   C     C_R   0.645571 0.016616 0.037469 -0.096820
C91   C     C_R   0.656685 0.998391 0.538223 -0.113834
C92   C     C_R   0.645884 0.965371 0.986506 -0.116207
C93   C     C_R   0.155148 0.489197 0.464865 -0.148171
C94   C     C_R   0.160373 0.504919 0.041730 -0.124425
C95   C     C_R   0.156671 0.498369 0.538247 -0.114062
C96   C     C_R   0.158706 0.464241 0.982017 -0.130156
C97   C     C_R   0.434722 0.000064 0.538345 -0.029891
C98   C     C_R   0.818771 0.463154 0.644218 0.552523
C99   C     C_R   0.426367 0.977400 0.971604 0.003677
C100  C     C_R   0.434361 0.003108 0.463997 0.004028
C101  C     C_R   0.425728 0.023120 0.029202 -0.001039
C102  C     C_R   0.934716 0.500109 0.538363 -0.029969
C103  C     C_R   0.937546 0.478535 0.970181 0.020585
C104  C     C_R   0.934358 0.503137 0.464013 0.004068
C105  C     C_R   0.937780 0.518164 0.033160 0.024777
C106  C     C_R   0.211297 0.984753 0.531449 0.044184
C107  C     C_R   0.203269 0.977524 0.970159 0.034717
C108  C     C_R   0.211195 0.019972 0.468706 0.013693
C109  C     C_R   0.816973 0.437370 0.862573 0.509717
C110  C     C_R   0.203010 0.021679 0.029168 0.038167
C111  C     C_R   0.711298 0.484785 0.531464 0.044050
C112  C     C_R   0.713326 0.475671 0.971921 0.042251
C113  C     C_R   0.711198 0.520007 0.468722 0.013518
C114  C     C_R   0.712650 0.522833 0.027849 0.047757
C115  C     C_R   0.100208 0.951183 0.549799 -0.037867
C116  C     C_R   0.089327 0.951647 0.945434 -0.066017
C117  C     C_R   0.097090 0.048003 0.445561 -0.080327
C118  C     C_R   0.089521 0.048401 0.052086 -0.072720
C119  C     C_R   0.600224 0.451185 0.549796 -0.036587
C120  C     C_R   0.819081 0.538416 0.356527 0.564138
C121  C     C_R   0.599968 0.448868 0.948203 -0.062828
C122  C     C_R   0.597092 0.548024 0.445570 -0.079821
C123  C     C_R   0.598531 0.551711 0.047675 -0.061821
C124  C     C_R   0.989733 0.969500 0.518300 -0.062915
C125  C     C_R   0.980644 0.979284 0.967912 -0.058526
C126  C     C_R   0.987756 0.021168 0.468391 -0.065570
C127  C     C_R   0.980772 0.025940 0.023445 -0.071859
C128  C     C_R   0.489752 0.469480 0.518281 -0.062428
C129  C     C_R   0.491136 0.479756 0.965375 -0.048343
C130  C     C_R   0.487764 0.521158 0.468380 -0.065115
C131  C     C_R   0.816201 0.562376 0.137500 0.515856
C132  C     C_R   0.489909 0.531982 0.015095 -0.058289
C133  C     C_R   0.130761 0.757483 0.644609 0.544511
C134  C     C_R   0.182364 0.770991 0.864114 0.530412
C135  C     C_R   0.137100 0.240962 0.357714 0.551057
C136  C     C_R   0.183567 0.228170 0.136365 0.533995
C137  C     C_R   0.630782 0.257490 0.644602 0.541649
C138  C     C_R   0.672971 0.268768 0.864446 0.536293
C139  C     C_R   0.637099 0.740962 0.357714 0.547967
C140  C     C_R   0.674515 0.730512 0.135792 0.536711
C141  C     C_R   0.498266 0.786708 0.637462 0.551143
C142  C     C_3   0.124114 0.683493 0.481472 -0.078875
C143  C     C_R   0.544351 0.770256 0.854175 0.552711
C144  C     C_R   0.504330 0.214922 0.362596 0.555681
C145  C     C_R   0.543442 0.229658 0.145593 0.554275
C146  C     C_R   0.998267 0.286710 0.637461 0.552470
C147  C     C_R   0.038784 0.272170 0.856668 0.553578
C148  C     C_R   0.004285 0.714905 0.362595 0.556173
C149  C     C_R   0.039868 0.728407 0.143879 0.555532
C150  C     C_3   0.092011 0.794357 0.467835 0.052183
C151  C     C_3   0.052939 0.808448 0.030554 0.060344
C152  C     C_3   0.004159 0.205373 0.522160 0.047888
Cr1   Cr    Cr6+3 0.488160 0.884660 0.750000 0.996510
Cr2   Cr    Cr6+3 0.333410 0.272740 0.250000 1.079861
Cr3   Cr    Cr6+3 0.833410 0.227260 0.750000 1.075297
Cr4   Cr    Cr6+3 0.833410 0.772740 0.250000 1.077102
Cr5   Cr    Cr6+3 0.488160 0.115340 0.250000 0.997646
Cr6   Cr    Cr6+3 0.988160 0.384660 0.750000 0.994095
Cr7   Cr    Cr6+3 0.988160 0.615340 0.250000 0.996529
Cr8   Cr    Cr6+3 0.173480 0.883120 0.750000 1.004097
Cr9   Cr    Cr6+3 0.173480 0.116880 0.250000 0.993331
Cr10  Cr    Cr6+3 0.673480 0.383120 0.750000 1.012674
Cr11  Cr    Cr6+3 0.673480 0.616880 0.250000 0.999104
Cr12  Cr    Cr6+3 0.333410 0.727260 0.750000 1.080685
H1    H     H_    0.271466 0.763201 0.529986 0.134074
H2    H     H_    0.898187 0.964677 0.940730 0.110667
H3    H     H_    0.903115 0.041448 0.447519 0.114751
H4    H     H_    0.899294 0.051103 0.039982 0.118075
H5    H     H_    0.406457 0.444725 0.533658 0.086489
H6    H     H_    0.410725 0.465068 0.936420 0.102333
H7    H     H_    0.403117 0.541413 0.447488 0.115683
H8    H     H_    0.406246 0.558499 0.027069 0.087539
H9    H     H_    0.936393 0.834207 0.549323 0.101223
H10   H     H_    0.939019 0.770649 0.928019 0.137758
H11   H     H_    0.878976 0.233688 0.421452 0.151562
H12   H     H_    0.247498 0.855932 0.010436 0.117178
H13   H     H_    0.940331 0.225790 0.070952 0.136505
H14   H     H_    0.436121 0.334099 0.549370 0.101407
H15   H     H_    0.451095 0.329203 0.954370 0.104798
H16   H     H_    0.379009 0.733565 0.421475 0.151322
H17   H     H_    0.453466 0.670862 0.043683 0.102096
H18   H     H_    0.851074 0.717716 0.474217 0.109797
H19   H     H_    0.991390 0.651362 0.008016 0.121143
H20   H     H_    0.918727 0.359183 0.503169 0.157668
H21   H     H_    0.986678 0.345206 0.997222 0.122588
H22   H     H_    0.351204 0.217194 0.474356 0.109309
H23   H     H_    0.193048 0.160811 0.495662 0.113050
H24   H     H_    0.411180 0.198222 0.023108 0.097790
H25   H     H_    0.418559 0.859095 0.503207 0.157491
H26   H     H_    0.410682 0.797830 0.975177 0.098176
H27   H     H_    0.996451 0.638364 0.573655 0.133548
H28   H     H_    0.233927 0.655293 0.964599 0.150158
H29   H     H_    0.164340 0.360138 0.448140 0.151785
H30   H     H_    0.235957 0.340707 0.039987 0.157603
H31   H     H_    0.497161 0.138262 0.573626 0.133504
H32   H     H_    0.602321 0.142051 0.942737 0.175039
H33   H     H_    0.664127 0.860177 0.448105 0.151483
H34   H     H_    0.247218 0.142610 0.986964 0.119618
H35   H     H_    0.597356 0.854227 0.061011 0.174919
H36   H     H_    0.176485 0.639313 0.459764 0.176255
H37   H     H_    0.293202 0.739130 0.086137 0.136779
H38   H     H_    0.238612 0.286393 0.570174 0.141583
H39   H     H_    0.290691 0.261436 0.914896 0.135352
H40   H     H_    0.677055 0.139545 0.459649 0.176017
H41   H     H_    0.755958 0.173933 0.060899 0.134667
H42   H     H_    0.738573 0.786507 0.570153 0.141430
H43   H     H_    0.757167 0.825521 0.940369 0.134563
H44   H     H_    0.738101 0.978323 0.436378 0.114297
H45   H     H_    0.771454 0.263608 0.529947 0.133948
H46   H     H_    0.724965 0.029736 0.068011 0.118516
H47   H     H_    0.741040 0.997296 0.567813 0.112408
H48   H     H_    0.726595 0.936520 0.975957 0.145703
H49   H     H_    0.238080 0.478264 0.436408 0.115685
H50   H     H_    0.243414 0.512767 0.071939 0.125516
H51   H     H_    0.241024 0.497231 0.567839 0.113898
H52   H     H_    0.238143 0.436469 0.965713 0.102593
H53   H     H_    0.548858 0.979523 0.371405 0.156175
H54   H     H_    0.542078 0.092176 0.086810 0.173113
H55   H     H_    0.555383 0.016066 0.631239 0.145978
H56   H     H_    0.804798 0.307294 0.993552 0.100690
H57   H     H_    0.540586 0.905181 0.917311 0.171224
H58   H     H_    0.048841 0.479517 0.371425 0.157599
H59   H     H_    0.067618 0.573209 0.103360 0.183437
H60   H     H_    0.055365 0.516111 0.631258 0.147195
H61   H     H_    0.061119 0.420706 0.901699 0.187556
H62   H     H_    0.088979 0.090920 0.410174 0.160177
H63   H     H_    0.082229 0.090720 0.088797 0.146392
H64   H     H_    0.096667 0.908484 0.585490 0.152574
H65   H     H_    0.081131 0.909597 0.908471 0.148807
H66   H     H_    0.588982 0.590939 0.410183 0.161020
H67   H     H_    0.693303 0.660903 0.495632 0.112701
H68   H     H_    0.591987 0.592743 0.085510 0.146180
H69   H     H_    0.596698 0.408467 0.585466 0.153155
H70   H     H_    0.593999 0.405953 0.912658 0.144415
H71   H     H_    0.080698 0.924118 0.348932 0.353655
H72   H     H_    0.985965 0.935577 0.146754 0.335600
H73   H     H_    0.809576 0.098515 0.601977 0.336897
H74   H     H_    0.981878 0.068511 0.846740 0.337115
H75   H     H_    0.580433 0.424145 0.348822 0.352699
H76   H     H_    0.717880 0.418827 0.167814 0.371941
H77   H     H_    0.309714 0.598424 0.601931 0.338857
H78   H     H_    0.809550 0.694512 0.008948 0.107067
H79   H     H_    0.751666 0.581287 0.840766 0.371488
H80   H     H_    0.906426 0.944777 0.533704 0.086007
O1    O     O_R   0.575450 0.828820 0.667950 -0.517433
O2    O     O_R   0.416860 0.942890 0.825320 -0.494109
O3    O     O_R   0.416860 0.057110 0.325320 -0.521714
O4    O     O_R   0.416860 0.057110 0.174680 -0.494503
O5    O     O_R   0.916860 0.442890 0.674680 -0.525723
O6    O     O_R   0.916860 0.442890 0.825320 -0.509370
O7    O     O_R   0.916860 0.557110 0.325320 -0.521858
O8    O     O_R   0.916860 0.557110 0.174680 -0.506190
O9    O     O_R   0.213790 0.953680 0.668330 -0.507921
O10   O     O_R   0.213790 0.953680 0.831670 -0.495030
O11   O     O_R   0.213790 0.046320 0.331670 -0.535862
O12   O     O_R   0.575450 0.828820 0.832050 -0.561425
O13   O     O_R   0.213790 0.046320 0.168330 -0.496490
O14   O     O_R   0.713790 0.453680 0.668330 -0.507506
O15   O     O_R   0.713790 0.453680 0.831670 -0.505511
O16   O     O_R   0.713790 0.546320 0.331670 -0.537750
O17   O     O_R   0.713790 0.546320 0.168330 -0.514750
O18   O     O_R   0.121360 0.817890 0.672660 -0.534551
O19   O     O_R   0.121360 0.817890 0.827340 -0.538441
O20   O     O_R   0.121360 0.182110 0.327340 -0.530506
O21   O     O_R   0.121360 0.182110 0.172660 -0.534215
O22   O     O_R   0.621360 0.317890 0.672660 -0.533527
O23   O     O_R   0.575450 0.171180 0.332050 -0.525479
O24   O     O_R   0.621360 0.317890 0.827340 -0.541354
O25   O     O_R   0.621360 0.682110 0.327340 -0.529531
O26   O     O_R   0.621360 0.682110 0.172660 -0.534964
O27   O     O_R   0.206850 0.711370 0.665820 -0.496347
O28   O     O_R   0.206850 0.711370 0.834180 -0.491038
O29   O     O_R   0.206850 0.288630 0.334180 -0.511468
O30   O     O_R   0.206850 0.288630 0.165820 -0.485827
O31   O     O_R   0.706850 0.211370 0.665820 -0.499975
O32   O     O_R   0.706850 0.211370 0.834180 -0.476474
O33   O     O_R   0.706850 0.788630 0.334180 -0.515405
O34   O     O_R   0.575450 0.171180 0.167950 -0.562547
O35   O     O_R   0.706850 0.788630 0.165820 -0.477920
O36   O     O_R   0.457710 0.733190 0.672630 -0.456091
O37   O     O_R   0.457710 0.733190 0.827370 -0.474650
O38   O     O_R   0.457710 0.266810 0.327370 -0.448571
O39   O     O_R   0.457710 0.266810 0.172630 -0.482229
O40   O     O_R   0.957710 0.233190 0.672630 -0.457799
O41   O     O_R   0.957710 0.233190 0.827370 -0.469479
O42   O     O_R   0.957710 0.766810 0.327370 -0.449221
O43   O     O_R   0.957710 0.766810 0.172630 -0.473195
O44   O     O_3   0.331690 0.831680 0.750000 -0.334475
O45   O     O_R   0.075450 0.328820 0.667950 -0.515860
O46   O     O_3   0.331690 0.168320 0.250000 -0.333847
O47   O     O_3   0.831690 0.331680 0.750000 -0.329685
O48   O     O_3   0.831690 0.668320 0.250000 -0.328491
O49   O     O_2   0.239277 0.863901 0.412335 -0.558225
O50   O     O_R   0.043201 0.888790 0.381709 -0.674783
O51   O     O_2   0.874993 0.871329 0.057313 -0.569175
O52   O     O_R   0.043113 0.902544 0.121543 -0.662057
O53   O     O_2   0.025844 0.110400 0.598364 -0.497054
O54   O     O_R   0.831717 0.131203 0.562335 -0.728206
O55   O     O_2   0.871761 0.132709 0.935775 -0.554939
O56   O     O_R   0.075450 0.328820 0.832050 -0.560537
O57   O     O_R   0.040281 0.099248 0.874468 -0.659825
O58   O     O_2   0.738986 0.364116 0.412409 -0.559344
O59   O     O_R   0.542933 0.388822 0.381602 -0.672997
O60   O     O_2   0.523773 0.403337 0.108361 -0.512223
O61   O     O_R   0.726861 0.385222 0.126772 -0.694020
O62   O     O_2   0.525980 0.610403 0.598429 -0.494205
O63   O     O_R   0.331874 0.631091 0.562276 -0.728368
O64   O     O_2   0.544118 0.602584 0.876182 -0.493296
O65   O     O_R   0.750593 0.613023 0.883739 -0.707419
O66   O     O_R   0.075450 0.671180 0.332050 -0.524975
O67   O     O_R   0.075450 0.671180 0.167950 -0.560162
O68   O     O_R   0.416860 0.942890 0.674680 -0.525220

loop_
_geom_bond_atom_site_label_1
_geom_bond_atom_site_label_2
_ccdc_geom_bond_type
C46   H41   S    
C6    C32   S    
C41   C50   S    
C21   C137  S    
C110  C118  A    
C139  O25   A    
C64   C152  S    
C133  O27   A    
C72   C101  A    
C9    H12   S    
C76   O11   A    
C113  C122  A    
Cr8   O19   S    
C124  H80   S    
C117  C126  A    
C21   C48   S    
C119  C128  A    
C98   O14   A    
C148  O42   A    
C71   C108  A    
C4    C56   S    
C7    C33   S    
C14   H56   S    
Cr5   O23   S    
C11   C20   S    
C94   H50   S    
C79   C109  S    
Cr11  O26   S    
C25   C140  S    
Cr4   O35   S    
Cr10  O47   S    
C54   C152  S    
C26   H9    S    
C120  O16   A    
C137  O31   A    
C82   C91   A    
Cr8   O9    S    
C109  O15   A    
Cr2   O29   S    
C8    C150  S    
C17   C43   S    
C18   C44   S    
C42   H26   S    
C90   C92   A    
C130  H7    S    
Cr1   O2    S    
Cr11  O17   S    
C111  C113  A    
C94   C96   A    
C22   C49   S    
C81   C90   A    
H77   O63   S    
C17   C133  S    
C118  H63   S    
C107  C110  A    
C36   C44   S    
C144  O23   A    
C37   C45   S    
H73   O54   S    
C41   C69   S    
C21   C30   S    
H74   O57   S    
C16   C25   S    
C9    C151  S    
C62   C150  S    
C64   C146  S    
C50   C57   S    
C139  O33   A    
Cr3   O32   S    
C98   O5    A    
C28   H11   S    
C8    C17   S    
C96   H52   S    
C41   H25   S    
C106  C115  A    
H72   O52   S    
Cr7   O7    S    
C44   H28   S    
C13   C45   S    
C12   C21   S    
C84   C93   A    
Cr5   O4    S    
C20   C47   S    
C3    C11   S    
C86   C95   A    
C83   H57   S    
Cr10  O14   S    
C121  H70   S    
C125  C127  A    
C32   H16   S    
C43   C142  S    
C132  H8    S    
C69   C141  S    
C16   H78   S    
C6    C69   S    
C65   O2    A    
C134  O19   A    
C123  C132  A    
Cr6   O5    S    
C87   O13   A    
C59   O63   S    
C81   C101  A    
C31   C40   S    
C70   C143  S    
C5    C58   S    
C33   C42   S    
C12   H45   S    
C56   O59   S    
C134  O28   A    
C40   C49   S    
C42   C70   S    
C111  C119  A    
C77   C131  S    
C3    C29   S    
Cr7   O48   S    
C74   C107  A    
C3    C55   S    
C119  H69   S    
C82   H55   S    
C2    C44   S    
C29   C38   S    
C141  O1    A    
C32   C41   S    
C78   C111  A    
C75   C113  A    
C89   C91   A    
C54   O54   S    
Cr11  O48   S    
C135  O20   A    
C93   C95   A    
C62   C148  S    
Cr8   O18   S    
C79   C103  A    
C62   C142  S    
C27   H10   S    
C117  H62   S    
C143  O37   A    
C129  H6    S    
C91   H47   S    
C80   H53   S    
C57   H42   S    
C65   C74   S    
C135  O29   A    
C46   C68   S    
C137  O22   A    
C35   C67   S    
C30   H14   S    
C103  C105  A    
C36   H19   S    
C20   C136  S    
C12   C35   S    
C19   C28   S    
Cr6   O56   S    
H75   O59   S    
C114  C123  A    
C6    C59   S    
C55   O55   D    
Cr12  O27   S    
C116  C125  A    
C48   H31   S    
C84   C104  A    
C92   H48   S    
Cr3   O41   S    
C16   C61   S    
C86   C102  A    
C72   C87   S    
C146  O40   A    
C2    C63   S    
C124  C126  A    
C15   H67   S    
Cr5   O46   S    
C1    O68   A    
C75   C120  S    
C19   C45   S    
C40   H24   S    
C14   C22   S    
C11   H34   S    
C112  C121  A    
C84   H58   S    
C106  C108  A    
C28   C37   S    
Cr10  O24   S    
C30   C39   S    
C18   C134  S    
C107  C116  A    
C8    H1    S    
C147  O41   A    
C9    C18   S    
C52   C150  S    
C118  C127  A    
C53   C151  S    
H76   O61   S    
C29   H13   S    
C2    C9    S    
Cr4   O43   S    
C58   O60   D    
C25   C33   S    
C131  O17   A    
C145  O39   A    
C61   C70   S    
C88   C96   A    
C24   H39   S    
C78   C102  A    
C149  O43   A    
C97   C100  A    
C7    C70   S    
C14   C46   S    
C46   C49   S    
C79   C112  A    
Cr11  O25   S    
C58   O61   S    
Cr7   O66   S    
C71   C76   S    
C146  O45   A    
C35   H40   S    
C67   C144  S    
C19   C135  S    
C34   C62   S    
C13   H38   S    
Cr4   O48   S    
Cr8   O10   S    
C80   C89   A    
Cr2   O30   S    
C10   C152  S    
C39   H22   S    
C56   O58   D    
C127  H4    S    
Cr1   O1    S    
C52   O49   D    
C4    C12   S    
C53   O52   S    
C24   C66   S    
C129  C132  A    
C83   C99   A    
Cr2   O39   S    
C2    H37   S    
Cr6   O47   S    
C5    C68   S    
C35   C48   S    
C108  C117  A    
C112  C114  A    
C50   H33   S    
C1    O9    A    
C45   H29   S    
C109  O6    A    
Cr12  O44   S    
C93   H49   S    
C26   C150  S    
Cr3   O31   S    
C60   O65   S    
C23   C50   S    
Cr10  O22   S    
C31   H15   S    
C10   C19   S    
C65   O10   A    
C85   H59   S    
C63   C151  S    
C5    C14   S    
C61   H43   S    
C7    C16   S    
Cr10  O15   S    
C126  H3    S    
C33   H17   S    
C75   C104  A    
C82   C97   A    
C76   O3    A    
C77   C114  A    
C7    C60   S    
C37   C64   S    
C27   C151  S    
C115  C124  A    
C142  H36   S    
C136  O30   A    
Cr6   O6    S    
C141  O36   A    
C121  C129  A    
C128  C130  A    
C74   C99   A    
C49   H32   S    
C27   C36   S    
C71   C100  A    
C22   C138  S    
C1    C73   S    
C23   C32   S    
C77   C105  A    
H71   O50   S    
C115  H64   S    
C13   C64   S    
C138  O24   A    
H79   O65   S    
C140  O26   A    
Cr12  O37   S    
C125  H2    S    
C40   C68   S    
C8    C142  S    
Cr6   O45   S    
C68   C145  S    
C39   C48   S    
C116  H65   S    
C95   H51   S    
C47   H30   S    
C145  O34   A    
C51   C61   S    
C120  O7    A    
Cr4   O42   S    
C87   O4    A    
C73   C97   A    
C83   C92   A    
C17   C26   S    
C23   C139  S    
Cr7   O8    S    
C89   H44   S    
C11   C24   S    
Cr3   O40   S    
C63   C149  S    
Cr7   O67   S    
Cr5   O34   S    
C26   C34   S    
C38   C66   S    
C53   O51   D    
C78   C98   S    
C36   C63   S    
Cr1   O68   S    
C42   C51   S    
C15   C23   S    
C6    C15   S    
C43   H27   S    
C80   C100  A    
C15   C57   S    
C140  O35   A    
C86   H60   S    
C85   C105  A    
C20   C29   S    
C133  O18   A    
C122  H66   S    
C72   C110  A    
C22   C31   S    
C123  H68   S    
Cr9   O21   S    
C90   H46   S    
C55   O57   S    
C37   H20   S    
Cr11  O16   S    
Cr2   O46   S    
C138  O32   A    
C136  O21   A    
Cr8   O44   S    
C25   C51   S    
C60   O64   D    
Cr5   O3    S    
C85   C94   A    
C88   H61   S    
Cr1   O44   S    
C10   H23   S    
C66   C147  S    
C102  C104  A    
C54   O53   D    
C38   C47   S    
C51   H35   S    
Cr1   O12   S    
C28   C152  S    
C143  O12   A    
Cr9   O11   S    
C88   C103  A    
C131  O8    A    
C148  O66   A    
Cr9   O13   S    
C149  O67   A    
Cr3   O47   S    
C24   C47   S    
C39   C67   S    
C18   C27   S    
C10   C13   S    
C4    C67   S    
C38   H21   S    
C52   O50   S    
Cr9   O46   S    
Cr4   O33   S    
C144  O38   A    
Cr9   O20   S    
C73   C106  A    
C81   H54   S    
C122  C130  A    
C34   H18   S    
Cr12  O28   S    
Cr2   O38   S    
C3    C66   S    
C128  H5    S    
C147  O56   A    
Cr12  O36   S    
C57   C69   S    
C34   C43   S    
C99   C101  A    
C59   O62   D    
C4    C30   S    
C5    C31   S    
