data_str_m2_o1_o9_f0_pcu.sym.101
_audit_creation_date              2012-12-10T18:05:40-0500
_audit_creation_method            fapswitch 2.2
_symmetry_space_group_name_H-M    P1
_symmetry_Int_Tables_number       1
_space_group_crystal_system       triclinic
_cell_length_a                    10.845053
_cell_length_b                    10.817521
_cell_length_c                    9.509106
_cell_angle_alpha                 90.482217
_cell_angle_beta                  90.463294
_cell_angle_gamma                 89.392912
_cell_volume                      1115.43807393

loop_
_atom_site_label
_atom_site_type_symbol
_atom_type_description
_atom_site_fract_x
_atom_site_fract_y
_atom_site_fract_z
_atom_type_partial_charge
C1    C     C_R   0.497225 0.262396 0.499655 0.847958
C2    C     C_R   0.499652 0.738044 0.501207 0.842297
C3    C     C_R   0.871770 0.495426 0.501614 -0.075260
C4    C     C_R   0.128402 0.504787 0.496885 -0.074366
C5    C     C_R   0.940994 0.449569 0.616480 -0.007874
C6    C     C_R   0.059338 0.549370 0.380801 0.001237
C7    C     C_R   0.433651 0.063047 0.392901 0.447761
C8    C     C_R   0.539828 0.939238 0.622629 0.458711
C9    C     C_R   0.442072 0.934705 0.391298 -0.356932
C10   C     C_R   0.544683 0.066967 0.615625 -0.339231
C11   C     C_R   0.496030 0.872184 0.504744 -0.192070
C12   C     C_R   0.493619 0.128959 0.500614 -0.190340
C13   C     C_R   0.423818 0.423713 0.072900 0.014651
C14   C     C_R   0.577475 0.574999 0.927044 -0.023600
C15   C     C_R   0.423481 0.424026 0.924077 -0.024867
C16   C     C_R   0.576991 0.575478 0.075908 -0.046257
C17   C     C_R   0.262215 0.503410 0.499000 0.779074
C18   C     C_R   0.737841 0.496706 0.500701 0.799042
C19   C     C_R   0.204990 0.781348 0.138732 -0.161712
C20   C     C_R   0.813526 0.200351 0.847250 -0.154723
C21   C     C_R   0.163045 0.725132 0.261269 -0.122738
C22   C     C_R   0.854758 0.262334 0.728476 -0.147858
C23   C     C_R   0.114980 0.605156 0.254992 0.148249
C24   C     C_R   0.885614 0.387708 0.737985 0.142452
C25   C     C_R   0.110704 0.542103 0.125361 -0.183638
C26   C     C_R   0.873699 0.450713 0.866854 -0.142580
C27   C     C_R   0.154834 0.597820 0.003972 -0.138354
C28   C     C_R   0.830680 0.388790 0.984918 -0.147191
C29   C     C_R   0.201266 0.717567 0.010469 -0.096992
C30   C     C_R   0.800947 0.263640 0.975269 -0.105632
C31   C     C_R   0.931637 0.543730 0.384788 -0.242720
C32   C     C_R   0.068505 0.455154 0.612748 -0.256169
Cu1   Cu    Cu3+1 0.500000 0.500020 0.640660 0.946921
Cu2   Cu    Cu3+1 0.500000 0.499980 0.359340 0.953226
H1    H     H_    0.232776 0.761481 0.915759 0.105432
H2    H     H_    0.769200 0.215579 0.067303 0.133672
H3    H     H_    0.362027 0.363259 0.866820 0.112456
H4    H     H_    0.638746 0.635898 0.133195 0.116066
H5    H     H_    0.238734 0.875023 0.142230 0.128515
H6    H     H_    0.792610 0.102906 0.840159 0.147813
H7    H     H_    0.165149 0.775890 0.359918 0.097179
H8    H     H_    0.865360 0.212165 0.630179 0.115366
H9    H     H_    0.072275 0.450427 0.118020 0.131012
H10   H     H_    0.898407 0.547211 0.875883 0.125284
H11   H     H_    0.151616 0.548793 0.904529 0.132031
H12   H     H_    0.821697 0.437424 0.084267 0.132248
H13   H     H_    0.878640 0.580165 0.296897 0.148375
H14   H     H_    0.121410 0.416465 0.699412 0.146558
H15   H     H_    0.400721 0.883914 0.305224 0.177454
H16   H     H_    0.585894 0.117765 0.702163 0.188586
H17   H     H_    0.363236 0.362338 0.127663 0.134410
H18   H     H_    0.639788 0.634813 0.872045 0.148654
N1    N     N_R   0.500030 0.500030 0.852070 -0.159469
N2    N     N_R   0.499970 0.499970 0.147930 -0.155340
O1    O     O_R   0.499990 0.319660 0.618740 -0.594462
O2    O     O_R   0.500010 0.680340 0.381260 -0.588674
O3    O     O_R   0.499990 0.319630 0.381170 -0.547906
O4    O     O_R   0.500010 0.680370 0.618830 -0.567784
O5    O     O_R   0.319650 0.500020 0.618780 -0.600721
O6    O     O_R   0.680350 0.499980 0.381220 -0.598375
O7    O     O_R   0.319640 0.500000 0.381210 -0.579719
O8    O     O_R   0.680360 0.500000 0.618790 -0.568678
O9    O     O_3   0.360922 0.123436 0.294479 -0.616919
C33   C     C_3   0.237810 0.122865 0.342786 0.041559
H19   H     H_    0.231669 0.157506 0.453548 0.126781
H20   H     H_    0.200450 0.027452 0.336933 0.139275
C34   C     C_3   0.158002 0.207397 0.251149 -0.334966
H21   H     H_    0.192193 0.303311 0.261251 0.224364
H22   H     H_    0.164601 0.177721 0.139242 0.212667
C35   C     C_3   0.023291 0.205444 0.296436 -0.924107
H23   H     H_    0.985100 0.111225 0.282608 0.253568
H24   H     H_    0.968322 0.270665 0.231255 0.256431
H25   H     H_    0.014958 0.234292 0.408331 0.260064
O10   O     O_3   0.581801 0.881878 0.743582 -0.593498
C36   C     C_3   0.485291 0.880160 0.843710 0.070627
H26   H     H_    0.442509 0.787598 0.840617 0.145734
H27   H     H_    0.408994 0.948468 0.824191 0.116205
C37   C     C_3   0.537700 0.900667 0.992003 -0.374770
H28   H     H_    0.477950 0.853884 0.069050 0.184843
H29   H     H_    0.631528 0.858870 0.000547 0.222888
C38   C     C_3   0.542981 0.037737 0.030328 -0.778698
H30   H     H_    0.596180 0.088511 0.951153 0.246592
H31   H     H_    0.588210 0.049523 0.134644 0.249496
H32   H     H_    0.448381 0.077849 0.034845 0.261406

loop_
_geom_bond_atom_site_label_1
_geom_bond_atom_site_label_2
_ccdc_geom_bond_type
Cu1   O1    S    
Cu2   O2    S    
Cu1   O4    S    
C27   C29   A    
C25   H9    S    
C38   H30   S    
C26   H10   S    
C20   C30   A    
C28   H12   S    
C15   N1    A    
C19   C21   A    
C24   C26   A    
C20   H6    S    
C37   H29   S    
C3    C18   S    
C15   H3    S    
C17   O7    A    
C13   H17   S    
C14   H18   S    
Cu1   O8    S    
Cu2   O3    S    
C35   H23   S    
C5    C32   A    
C27   H11   S    
C6    C31   A    
Cu1   O5    S    
C31   H13   S    
Cu2   O6    S    
C32   H14   S    
C1    C12   S    
C2    C11   S    
C10   C12   A    
C38   H31   S    
C21   C23   A    
Cu1   N1    S    
C7    C12   A    
O10   C36   S    
C34   H21   S    
C33   C34   S    
C9    H15   S    
C4    C6    A    
C37   H28   S    
C18   O8    A    
Cu2   O7    S    
C34   H22   S    
C33   H20   S    
C36   H26   S    
C1    O3    A    
C9    C11   A    
C35   H25   S    
C8    O10   S    
Cu1   Cu2   S    
C3    C31   A    
C36   H27   S    
C7    O9    S    
C4    C32   A    
C19   H5    S    
C17   O5    A    
C21   H7    S    
C4    C17   S    
C18   O6    A    
C20   C22   A    
Cu2   N2    S    
C13   C15   A    
C22   C24   A    
C10   H16   S    
C38   H32   S    
C13   N2    A    
C7    C9    A    
C3    C5    A    
C2    O4    A    
C25   C27   A    
C29   H1    S    
C26   C28   A    
C30   H2    S    
C34   C35   S    
C33   H19   S    
C28   C30   A    
C1    O1    A    
C2    O2    A    
C37   C38   S    
C22   H8    S    
C5    C24   S    
C8    C11   A    
C6    C23   S    
C14   C16   A    
C23   C25   A    
C36   C37   S    
C16   N2    A    
O9    C33   S    
C14   N1    A    
C8    C10   A    
C35   H24   S    
C16   H4    S    
C19   C29   A    
