data_str_m3_o5_o28_f0_pcu.sym.88
_audit_creation_date              2013-03-05T16:48:17-0500
_audit_creation_method            fapswitch 2.2
_symmetry_space_group_name_H-M    P1
_symmetry_Int_Tables_number       1
_space_group_crystal_system       triclinic
_cell_length_a                    23.371574
_cell_length_b                    8.914567
_cell_length_c                    8.095426
_cell_angle_alpha                 89.568319
_cell_angle_beta                  90.193508
_cell_angle_gamma                 90.031
_cell_volume                      1686.60374867

loop_
_atom_site_label
_atom_site_type_symbol
_atom_site_description
_atom_site_fract_x
_atom_site_fract_y
_atom_site_fract_z
_atom_type_partial_charge
O1    O     O_R   0.500000 0.285350 0.636850 -0.616434
O2    O     O_R   0.500000 0.714650 0.363150 -0.613617
O3    O     O_R   0.500000 0.714650 0.636850 -0.614326
O4    O     O_R   0.500000 0.285350 0.363150 -0.615312
C1    C     C_R   0.500046 0.217979 0.500399 0.928510
C2    C     C_R   0.499812 0.782018 0.499599 0.930054
O5    O     O_R   0.416160 0.500000 0.636910 -0.612412
O6    O     O_R   0.583840 0.500000 0.363090 -0.613758
O7    O     O_R   0.583840 0.500000 0.636910 -0.612576
O8    O     O_R   0.416160 0.500000 0.363090 -0.618729
C3    C     C_R   0.207419 0.498459 0.554447 0.187916
C4    C     C_R   0.791647 0.553187 0.534245 0.205788
C5    C     C_R   0.388778 0.495843 0.500103 0.904082
C6    C     C_R   0.611002 0.502729 0.500563 0.901143
Zn1   Zn    Zn3+2 0.500000 0.500000 0.682780 0.982198
Zn2   Zn    Zn3+2 0.500000 0.500000 0.317220 0.983688
C7    C     C_R   0.290987 0.555607 0.384993 0.100384
C8    C     C_R   0.709255 0.433122 0.406256 0.101207
C9    C     C_R   0.300622 0.406903 0.640685 0.106482
C10   C     C_R   0.696347 0.634579 0.609849 0.096291
C11   C     C_R   0.325939 0.483256 0.504978 -0.152760
C12   C     C_R   0.673121 0.523274 0.504388 -0.127830
C13   C     C_R   0.883021 0.676288 0.510578 0.586587
C14   C     C_R   0.114534 0.388584 0.609844 0.598588
C15   C     C_R   0.876516 0.434448 0.638797 0.587154
C16   C     C_R   0.122868 0.652998 0.576545 0.586618
N1    N     N_R   0.852124 0.555210 0.562238 -0.364438
N2    N     N_R   0.147034 0.513660 0.583388 -0.364594
C17   C     C_R   0.936269 0.425450 0.655655 -0.147819
C18   C     C_R   0.063088 0.667323 0.563218 -0.153515
C19   C     C_R   0.942664 0.680334 0.535105 -0.149021
C20   C     C_R   0.056099 0.402968 0.644646 -0.152232
C21   C     C_R   0.969380 0.549369 0.599612 -0.111647
C22   C     C_R   0.029437 0.540616 0.604250 -0.116398
C23   C     C_R   0.964093 0.297356 0.724021 0.392570
C24   C     C_R   0.036379 0.800388 0.506044 0.391239
C25   C     C_R   0.976541 0.807191 0.492194 0.389167
C26   C     C_R   0.023771 0.285076 0.714694 0.393537
C27   C     C_1   0.499985 0.065215 0.500585 -0.189566
C28   C     C_1   0.499902 0.934782 0.499442 -0.192867
C29   C     C_R   0.230946 0.549611 0.403151 0.186981
C30   C     C_R   0.768791 0.457058 0.412808 0.150172
C31   C     C_R   0.242700 0.431479 0.675887 0.182275
C32   C     C_R   0.755830 0.640323 0.634877 0.162779
N3    N     N_1   0.500000 0.500000 0.073640 -0.033999
N4    N     N_1   0.500000 0.500000 0.926360 -0.034781
O9    O     O_2   0.855447 0.789553 0.433166 -0.471342
O10   O     O_2   0.138621 0.251757 0.597379 -0.433205
O11   O     O_2   0.842331 0.322813 0.693105 -0.479581
O12   O     O_2   0.156990 0.774935 0.579698 -0.458117
Cl1   Cl    Cl    0.926522 0.149015 0.823475 -0.405726
Cl2   Cl    Cl    0.076666 0.953968 0.427645 -0.380713
Cl3   Cl    Cl    0.946192 0.979284 0.422848 -0.405035
Cl4   Cl    Cl    0.057555 0.128257 0.809900 -0.406559
C33   C     C_3   0.191879 0.598425 0.262935 -0.783561
H1    H     H_    0.148223 0.550697 0.274394 0.235132
H2    H     H_    0.189018 0.722664 0.257985 0.281674
H3    H     H_    0.208360 0.556957 0.143980 0.227940
C34   C     C_3   0.808123 0.375657 0.294828 -0.721461
H4    H     H_    0.852202 0.421693 0.294596 0.235208
H5    H     H_    0.810558 0.254978 0.328829 0.276190
H6    H     H_    0.791896 0.387403 0.166322 0.242426
C35   C     C_3   0.219361 0.388566 0.844120 -0.786690
H7    H     H_    0.180114 0.452186 0.875010 0.231968
H8    H     H_    0.209893 0.266637 0.849185 0.289519
H9    H     H_    0.251264 0.414945 0.941454 0.222480
C36   C     C_3   0.780825 0.735763 0.771846 -0.743937
H10   H     H_    0.825531 0.705670 0.803689 0.240853
H11   H     H_    0.779973 0.855844 0.734631 0.270267
H12   H     H_    0.755812 0.719827 0.887073 0.233069
C37   C     C_3   0.317705 0.641188 0.241771 -0.811970
H13   H     H_    0.286926 0.711562 0.171710 0.245825
H14   H     H_    0.350622 0.720171 0.288639 0.239919
H15   H     H_    0.337426 0.561302 0.154176 0.245485
C38   C     C_3   0.685597 0.309104 0.297879 -0.823206
H16   H     H_    0.711733 0.205898 0.311943 0.250803
H17   H     H_    0.641643 0.274348 0.331429 0.234333
H18   H     H_    0.686057 0.345808 0.166557 0.249312
C39   C     C_3   0.334781 0.298945 0.748516 -0.796015
H19   H     H_    0.307876 0.202918 0.788942 0.246954
H20   H     H_    0.370741 0.248153 0.679335 0.231430
H21   H     H_    0.351465 0.357780 0.859109 0.242802
C40   C     C_3   0.657607 0.746064 0.696174 -0.811446
H22   H     H_    0.680131 0.851154 0.729004 0.240539
H23   H     H_    0.622138 0.781491 0.613197 0.223136
H24   H     H_    0.639915 0.694921 0.810550 0.254523

loop_
_geom_bond_atom_site_label_1
_geom_bond_atom_site_label_2
_geom_bond_distance
_ccdc_geom_bond_type
C33   H1    1.109164 S    
C35   H8    1.109602 S    
C8    C38   1.519361 S    
O7    C6    1.275244 A    
O3    C2    1.259026 A    
C16   O12   1.348178 S    
C31   C35   1.515143 S    
N3    N4    1.192294 T    
O1    C1    1.261311 A    
C24   C25   1.403923 A    
C9    C11   1.418797 A    
C8    C30   1.408477 A    
C17   C21   1.420891 A    
C29   C33   1.515750 S    
C4    C30   1.412385 A    
C19   C21   1.419518 A    
C3    C31   1.410370 A    
O1    Zn1   1.952051 S    
C13   N1    1.362264 A    
O2    Zn2   1.952050 S    
C24   Cl2   1.775783 S    
C25   Cl3   1.776890 S    
O5    Zn1   1.993118 S    
C35   H9    1.109398 S    
C34   H4    1.108721 S    
O6    Zn2   1.993116 S    
O2    C2    1.261306 A    
C10   C32   1.405164 A    
C9    C31   1.402039 A    
C7    C29   1.412357 A    
C15   C17   1.404988 A    
C34   H5    1.109888 S    
C13   O9    1.347600 S    
C18   C22   1.414166 A    
C4    N1    1.430849 S    
C36   H10   1.107961 S    
C14   O10   1.348283 S    
C23   C26   1.401454 A    
C27   C28   1.162867 T    
C39   H20   1.110156 S    
C35   H7    1.108962 S    
C7    C11   1.418643 A    
C19   C25   1.421754 A    
C36   H11   1.110041 S    
C13   C19   1.407833 A    
O4    Zn2   1.946551 S    
C38   H16   1.109553 S    
C14   C20   1.401541 A    
C39   H21   1.110490 S    
C40   H22   1.108009 S    
C26   Cl4   1.775574 S    
C21   C22   1.406190 A    
C5    C11   1.473519 S    
C9    C39   1.519552 S    
C38   H17   1.106947 S    
C40   H23   1.109717 S    
C10   C12   1.420269 A    
C7    C37   1.518995 S    
C20   C26   1.410672 A    
C1    C27   1.361814 S    
C23   Cl1   1.776369 S    
C2    C28   1.361816 S    
C10   C40   1.520395 S    
O3    Zn1   1.946550 S    
C37   H14   1.110414 S    
C34   H6    1.110310 S    
O6    C6    1.279752 A    
C8    C12   1.416010 A    
C14   N2    1.364780 A    
O4    C1    1.259030 A    
O8    C5    1.282707 A    
C30   C34   1.516876 S    
C37   H15   1.110223 S    
C16   C18   1.406753 A    
C15   N1    1.362452 A    
C17   C23   1.421960 A    
C16   N2    1.365463 A    
C18   C24   1.414773 A    
C36   H12   1.110702 S    
C6    C12   1.463467 S    
C33   H2    1.110010 S    
O7    Zn1   1.995580 S    
C37   H13   1.106843 S    
C4    C32   1.408075 A    
O8    Zn2   1.995582 S    
C3    N2    1.438034 S    
C3    C29   1.416436 A    
C38   H18   1.110044 S    
C15   O11   1.347943 S    
Zn2   N3    1.971884 S    
C39   H19   1.109914 S    
O5    C5    1.278007 A    
C40   H24   1.110039 S    
C33   H3    1.104718 S    
C32   C36   1.517874 S    
Zn1   N4    1.971884 S    
C20   C22   1.412213 A    
