data_str_m9_o11_o18_f0_sra.sym.40
_audit_creation_date              2012-12-11T14:21:15-0500
_audit_creation_method            fapswitch 2.2
_symmetry_space_group_name_H-M    P1
_symmetry_Int_Tables_number       1
_space_group_crystal_system       triclinic
_cell_length_a                    21.948541
_cell_length_b                    7.197602
_cell_length_c                    14.934644
_cell_angle_alpha                 90.535542
_cell_angle_beta                  106.844863
_cell_angle_gamma                 90.178967
_cell_volume                      2257.95568387

loop_
_atom_site_label
_atom_site_type_symbol
_atom_type_description
_atom_site_fract_x
_atom_site_fract_y
_atom_site_fract_z
_atom_type_partial_charge
O1    O     O_R   0.584770 0.505770 0.002090 -0.541162
O2    O     O_R   0.415230 0.005770 0.997910 -0.541072
O3    O     O_R   0.467060 0.173340 0.861950 -0.540046
O4    O     O_R   0.532940 0.673340 0.138050 -0.538880
C1    C     C_R   0.453979 0.343332 0.826109 0.697607
C2    C     C_R   0.545898 0.845213 0.173760 0.697404
O5    O     O_R   0.587510 0.175890 0.993210 -0.536421
O6    O     O_R   0.412490 0.675890 0.006790 -0.535077
O7    O     O_R   0.536540 0.008150 0.130100 -0.538742
O8    O     O_R   0.463460 0.508150 0.869900 -0.538650
C3    C     C_R   0.613274 0.343748 0.997587 0.736788
C4    C     C_R   0.386426 0.843528 0.000212 0.735975
O9    O     O_3   0.483140 0.340040 0.044760 -0.376597
O10   O     O_3   0.516860 0.840040 0.955240 -0.378021
V1    V     V_3+5 0.503130 0.064190 0.991700 1.399077
V2    V     V_3+5 0.496870 0.564190 0.008300 1.406808
C5    C     C_2   0.208078 0.730514 0.977326 -0.138178
C6    C     C_2   0.786308 0.227665 0.990251 -0.129777
C7    C     C_2   0.178821 0.889136 0.989143 -0.340122
C8    C     C_2   0.821414 0.384495 0.010153 -0.372367
H1    H     H_    0.181545 0.600977 0.971086 0.149058
H2    H     H_    0.808255 0.104914 0.970439 0.154026
H3    H     H_    0.202351 0.021941 0.989746 0.134377
H4    H     H_    0.802122 0.510865 0.030687 0.140573
C9    C     C_2   0.274207 0.717852 0.968299 0.184880
C10   C     C_2   0.719279 0.205317 0.993774 0.189154
C11   C     C_2   0.318911 0.853160 0.001397 -0.299059
C12   C     C_2   0.680906 0.353672 0.996183 -0.323810
H5    H     H_    0.305993 0.979110 0.031519 0.099352
H6    H     H_    0.699351 0.493295 0.995788 0.112870
C13   C     C_R   0.927756 0.877083 0.724101 -0.056225
C14   C     C_R   0.072890 0.391917 0.276186 -0.056525
C15   C     C_R   0.575718 0.855902 0.274949 -0.032310
C16   C     C_R   0.425238 0.352235 0.724641 -0.037297
C17   C     C_R   0.935605 0.764131 0.575272 -0.136998
C18   C     C_R   0.064491 0.445441 0.431687 -0.141467
C19   C     C_R   0.963995 0.803918 0.669527 -0.188370
C20   C     C_R   0.036412 0.438052 0.335421 -0.183968
C21   C     C_R   0.862744 0.908667 0.684441 -0.169944
C22   C     C_R   0.137974 0.358589 0.313272 -0.133631
C23   C     C_R   0.831331 0.851427 0.591536 0.030134
C24   C     C_R   0.169287 0.386286 0.409574 0.046632
C25   C     C_R   0.869578 0.786058 0.535480 0.038621
C26   C     C_R   0.130477 0.418365 0.469806 0.015655
C27   C     C_R   0.763501 0.856986 0.552486 -0.056365
C28   C     C_R   0.237345 0.384477 0.448040 -0.037154
C29   C     C_R   0.736955 0.833207 0.453873 -0.053181
C30   C     C_R   0.263709 0.375321 0.547469 -0.063315
C31   C     C_R   0.775863 0.758685 0.402494 -0.250140
C32   C     C_R   0.223543 0.408253 0.604329 -0.232678
C33   C     C_R   0.841368 0.739271 0.441174 0.397679
C34   C     C_R   0.158103 0.427437 0.567043 0.407737
C35   C     C_R   0.720572 0.867694 0.608051 0.403414
C36   C     C_R   0.280187 0.409258 0.392766 0.410913
C37   C     C_R   0.655016 0.873546 0.565768 -0.266547
C38   C     C_R   0.345382 0.432921 0.437285 -0.273921
C39   C     C_R   0.629648 0.866024 0.469080 0.039859
C40   C     C_R   0.370884 0.408159 0.532978 0.050614
C41   C     C_R   0.670433 0.861111 0.411007 0.100834
C42   C     C_R   0.330893 0.359524 0.588229 0.099494
C43   C     C_R   0.563449 0.856009 0.430238 -0.149441
C44   C     C_R   0.436164 0.437901 0.574252 -0.148546
C45   C     C_R   0.537005 0.841466 0.334001 -0.214422
C46   C     C_R   0.462320 0.419586 0.670158 -0.208496
C47   C     C_R   0.642223 0.881708 0.312600 0.112969
C48   C     C_R   0.360383 0.306477 0.682873 0.101098
H7    H     H_    0.485901 0.825652 0.305251 0.112548
H8    H     H_    0.512156 0.453211 0.701762 0.115024
H9    H     H_    0.623590 0.875717 0.610034 0.144171
H10   H     H_    0.376523 0.475047 0.396439 0.130755
H11   H     H_    0.965324 0.711299 0.534309 0.152906
H12   H     H_    0.034457 0.476146 0.475987 0.150373
H13   H     H_    0.014265 0.776931 0.700107 0.128577
H14   H     H_    0.986042 0.465467 0.307215 0.129076
H15   H     H_    0.838005 0.977261 0.727967 0.166154
H16   H     H_    0.162393 0.308627 0.265201 0.150124
H17   H     H_    0.755369 0.704937 0.332523 0.165381
H18   H     H_    0.242941 0.431571 0.678759 0.166473
H19   H     H_    0.532160 0.853053 0.474620 0.122264
H20   H     H_    0.466626 0.482035 0.532715 0.121508
O11   O     O_R   0.036450 0.233070 0.130130 -0.541318
O12   O     O_R   0.963550 0.733070 0.869870 -0.535434
O13   O     O_R   0.912470 0.560570 0.006790 -0.545510
O14   O     O_R   0.087530 0.060570 0.993210 -0.546166
C49   C     C_R   0.887411 0.391748 0.004107 0.750324
C50   C     C_R   0.112647 0.892398 0.995590 0.749040
O15   O     O_R   0.032920 0.562940 0.138050 -0.534530
O16   O     O_R   0.967080 0.062940 0.861950 -0.541964
O17   O     O_R   0.084790 0.730500 0.002090 -0.535160
O18   O     O_R   0.915210 0.230500 0.997910 -0.537714
C51   C     C_R   0.044719 0.395326 0.174628 0.686420
C52   C     C_R   0.955288 0.893159 0.825481 0.687458
O19   O     O_3   0.016820 0.396170 0.955260 -0.379021
O20   O     O_3   0.983180 0.896170 0.044740 -0.378966
V3    V     V_3+5 0.996880 0.672090 0.008300 1.419359
V4    V     V_3+5 0.003120 0.172090 0.991700 1.404969
O21   O     O_3   0.740256 0.848331 0.703961 -0.564753
C53   C     C_3   0.740594 0.657209 0.724957 0.091865
H21   H     H_    0.783902 0.590520 0.715104 0.135912
H22   H     H_    0.697588 0.581836 0.680998 0.118597
C54   C     C_3   0.741206 0.636343 0.826072 -0.733468
H23   H     H_    0.698930 0.705250 0.837773 0.220754
H24   H     H_    0.739271 0.486563 0.841563 0.197654
H25   H     H_    0.785193 0.699676 0.873279 0.221902
O22   O     O_3   0.258405 0.452256 0.298736 -0.555711
C55   C     C_3   0.279921 0.317325 0.245437 0.063222
H26   H     H_    0.264013 0.175301 0.258121 0.119031
H27   H     H_    0.332642 0.319188 0.261375 0.124112
C56   C     C_3   0.252426 0.360370 0.142222 -0.707779
H28   H     H_    0.267999 0.501319 0.128612 0.238439
H29   H     H_    0.269896 0.258210 0.099485 0.166504
H30   H     H_    0.199597 0.354481 0.121692 0.213849
C57   C     C_3   0.289276 0.543363 0.921885 -0.737369
H31   H     H_    0.245659 0.460373 0.889241 0.187749
H32   H     H_    0.310746 0.579862 0.865481 0.202643
H33   H     H_    0.322067 0.453794 0.974275 0.215090
C58   C     C_3   0.696221 0.006125 0.990689 -0.696247
H34   H     H_    0.734457 0.904952 0.991474 0.170259
H35   H     H_    0.680362 0.976496 0.053067 0.208672
H36   H     H_    0.656973 0.979859 0.925606 0.212434
O23   O     O_3   0.877391 0.662294 0.387952 -0.564021
C59   C     C_3   0.882840 0.788062 0.318087 0.081825
H37   H     H_    0.934254 0.815661 0.328381 0.140230
H38   H     H_    0.859995 0.926089 0.319937 0.111292
C60   C     C_3   0.855043 0.700518 0.221447 -0.719991
H39   H     H_    0.803048 0.677810 0.207035 0.207548
H40   H     H_    0.863184 0.794071 0.167250 0.184725
H41   H     H_    0.878149 0.565136 0.217033 0.217090
O24   O     O_3   0.121848 0.466839 0.626800 -0.563114
C61   C     C_3   0.096939 0.300022 0.652225 0.081642
H42   H     H_    0.097502 0.178513 0.605307 0.109756
H43   H     H_    0.046240 0.324062 0.648137 0.145578
C62   C     C_3   0.132390 0.250540 0.752790 -0.716913
H44   H     H_    0.130241 0.368103 0.800470 0.222636
H45   H     H_    0.110087 0.126243 0.774087 0.183453
H46   H     H_    0.182901 0.219025 0.758977 0.209996
C63   C     C_3   0.679311 0.954630 0.248825 -0.818907
H47   H     H_    0.726116 0.014578 0.288004 0.219932
H48   H     H_    0.685522 0.842281 0.200876 0.189116
H49   H     H_    0.653524 0.071550 0.206738 0.221414
C64   C     C_3   0.327341 0.181783 0.735899 -0.808365
H50   H     H_    0.318754 0.258250 0.795880 0.196895
H51   H     H_    0.282027 0.122847 0.690627 0.217548
H52   H     H_    0.357563 0.059578 0.762878 0.225476

loop_
_geom_bond_atom_site_label_1
_geom_bond_atom_site_label_2
_ccdc_geom_bond_type
C40   C44   A    
O16   V4    S    
O4    V2    S    
C54   H23   S    
O15   C51   A    
C11   H5    S    
C58   H34   S    
O22   C55   S    
C7    H3    S    
O1    C3    A    
C10   C58   S    
C7    C50   S    
O2    C4    A    
C16   C48   A    
C2    O7    A    
O21   C53   S    
C15   C47   A    
C29   C31   A    
C48   C64   S    
O5    C3    A    
C63   H48   S    
C34   O24   S    
C46   H8    S    
C44   H20   S    
C17   C19   A    
O14   C50   A    
O24   C61   S    
C58   H35   S    
O14   V4    S    
C39   C41   A    
C14   C51   S    
C55   H26   S    
C40   C42   A    
O12   C52   A    
C24   C28   A    
C27   C29   A    
C43   C45   A    
C44   C46   A    
C6    C10   S    
C8    H4    S    
C38   C40   A    
C31   C33   A    
O15   V3    S    
C62   H46   S    
C32   C34   A    
C21   H15   S    
C17   C25   A    
C56   H30   S    
O6    C4    A    
C57   H33   S    
C47   C63   S    
C26   C34   A    
C30   C32   A    
C42   C48   A    
O6    V2    S    
C8    C49   S    
C23   C25   A    
C24   C26   A    
C32   H18   S    
C30   C42   A    
C28   C30   A    
C35   C37   A    
C63   H49   S    
C45   H7    S    
C4    C11   S    
O16   C52   A    
C21   C23   A    
C64   H52   S    
O11   V4    S    
C35   O21   S    
C27   C35   A    
C5    H1    S    
C22   H16   S    
C31   H17   S    
C64   H51   S    
O17   V3    S    
C61   H43   S    
C9    C57   S    
C60   H41   S    
C15   C45   A    
O13   V3    S    
C1    C16   S    
C28   C36   A    
C16   C46   A    
O1    V2    S    
O18   V4    S    
O2    V1    S    
O23   C59   S    
C37   H9    S    
O4    C2    A    
O13   C49   A    
C53   H21   S    
O19   V4    S    
C14   C20   A    
C37   C39   A    
C60   H39   S    
C33   O23   S    
C58   H36   S    
C61   C62   S    
C59   H38   S    
C18   C20   A    
O3    V1    S    
C62   H45   S    
C57   H31   S    
C20   H14   S    
C19   H13   S    
O12   V3    S    
C36   O22   S    
C6    H2    S    
C10   C12   D    
C22   C24   A    
O3    C1    A    
C50   O17   A    
C49   O18   A    
C36   C38   A    
C39   C43   A    
C9    C11   D    
C53   C54   S    
C63   H47   S    
C38   H10   S    
C2    C15   S    
C5    C9    S    
C59   C60   S    
C56   H29   S    
C61   H42   S    
O7    V1    S    
C12   H6    S    
C17   H11   S    
O8    V2    S    
C64   H50   S    
C41   C47   A    
C25   C33   A    
C62   H44   S    
C55   H27   S    
C3    C12   S    
C43   H19   S    
O5    V1    S    
C5    C7    D    
C13   C21   A    
C6    C8    D    
C14   C22   A    
O20   V3    S    
C53   H22   S    
C18   C26   A    
C29   C41   A    
O11   C51   A    
C13   C19   A    
C1    O8    A    
C54   H24   S    
C13   C52   S    
O9    V2    S    
C60   H40   S    
C23   C27   A    
O10   V1    S    
C54   H25   S    
C59   H37   S    
C56   H28   S    
C18   H12   S    
C57   H32   S    
C55   C56   S    
