data_str_m3_o10_o29_f0_pcu.sym.109
_audit_creation_date              2012-12-10T16:59:12-0500
_audit_creation_method            fapswitch 2.2
_symmetry_space_group_name_H-M    P1
_symmetry_Int_Tables_number       1
_space_group_crystal_system       triclinic
_cell_length_a                    7.729859
_cell_length_b                    8.608253
_cell_length_c                    27.732623
_cell_angle_alpha                 90.976035
_cell_angle_beta                  85.875784
_cell_angle_gamma                 93.50455
_cell_volume                      1836.97631842

loop_
_atom_site_label
_atom_site_type_symbol
_atom_type_description
_atom_site_fract_x
_atom_site_fract_y
_atom_site_fract_z
_atom_type_partial_charge
C1    C     C_R   0.545136 0.794442 0.498022 0.889884
C2    C     C_R   0.571747 0.628544 0.126500 0.015094
C3    C     C_R   0.506456 0.497357 0.646493 -0.075121
C4    C     C_R   0.493427 0.503151 0.353510 -0.074664
C5    C     C_R   0.573377 0.631068 0.024880 0.130597
C6    C     C_R   0.414316 0.375750 0.975399 0.129970
C7    C     C_R   0.429928 0.366135 0.026046 -0.055121
C8    C     C_R   0.563249 0.637854 0.974052 -0.045771
C9    C     C_R   0.500293 0.498392 0.050730 -0.015092
C10   C     C_R   0.492626 0.505998 0.949409 -0.010665
C11   C     C_R   0.665429 0.748402 0.050609 -0.119547
C12   C     C_R   0.454864 0.205558 0.501978 0.890091
C13   C     C_R   0.313623 0.264001 0.949867 -0.145081
C14   C     C_R   0.658365 0.750475 0.100533 -0.181598
C15   C     C_R   0.319474 0.262133 0.899922 -0.155226
C16   C     C_R   0.502271 0.499497 0.593948 0.901419
C17   C     C_R   0.497725 0.500580 0.406050 0.901592
C18   C     C_R   0.610186 0.775385 0.947167 0.288006
C19   C     C_R   0.386006 0.226729 0.052573 0.305518
C20   C     C_2   0.563985 0.956364 0.490308 0.189730
C21   C     C_2   0.436016 0.043636 0.509692 0.189608
C22   C     C_R   0.583401 0.622586 0.820802 0.643836
C23   C     C_R   0.493990 0.506152 0.898309 -0.139353
C24   C     C_R   0.425227 0.375216 0.179102 0.642077
C25   C     C_R   0.425661 0.375488 0.823358 0.550038
C26   C     C_R   0.562702 0.630880 0.176907 0.553507
C27   C     C_R   0.664723 0.469630 0.718274 0.532240
C28   C     C_R   0.333603 0.526815 0.281823 0.532731
C29   C     C_R   0.661597 0.472143 0.667806 -0.326583
C30   C     C_R   0.337054 0.524067 0.332271 -0.325153
C31   C     C_R   0.354132 0.519907 0.675714 -0.192289
C32   C     C_R   0.646706 0.485387 0.324218 -0.191038
C33   C     C_R   0.356776 0.518120 0.725558 -0.179844
C34   C     C_R   0.500327 0.497951 0.101781 -0.134430
C35   C     C_R   0.643778 0.487667 0.274375 -0.180848
C36   C     C_R   0.510995 0.493179 0.746807 0.258465
C37   C     C_R   0.488265 0.508094 0.253239 0.260068
C38   C     C_R   0.574420 0.632462 0.871673 -0.133954
C39   C     C_R   0.433032 0.366550 0.128225 -0.146000
C40   C     C_R   0.635500 0.766910 0.896277 0.374678
C41   C     C_R   0.387944 0.227603 0.103518 0.390584
C42   C     C_R   0.414672 0.379153 0.873763 0.015962
H1    H     H_    0.232907 0.539649 0.660154 0.175340
H2    H     H_    0.245755 0.170000 0.881944 0.200296
H3    H     H_    0.749810 0.837822 0.033065 0.209433
H4    H     H_    0.222506 0.180000 0.967531 0.199473
H5    H     H_    0.791104 0.953156 0.891270 0.338848
H6    H     H_    0.402062 0.004002 0.110089 0.353762
H7    H     H_    0.086218 0.558572 0.284786 0.328313
H8    H     H_    0.910364 0.430634 0.715407 0.330201
H9    H     H_    0.587017 0.000162 0.947325 0.372433
H10   H     H_    0.261523 0.026067 0.046614 0.342228
H11   H     H_    0.770181 0.933357 0.445703 0.348722
H12   H     H_    0.768904 0.469150 0.339723 0.173457
H13   H     H_    0.229818 0.066642 0.554297 0.348642
H14   H     H_    0.014648 0.383241 0.463514 0.207672
H15   H     H_    0.985352 0.616761 0.536486 0.207770
H16   H     H_    0.238948 0.536940 0.747910 0.184143
H17   H     H_    0.762325 0.472637 0.251939 0.182718
H18   H     H_    0.218337 0.538289 0.354723 0.160656
H19   H     H_    0.779519 0.454143 0.645393 0.161091
H20   H     H_    0.725271 0.846525 0.118649 0.204398
N1    N     N_R   0.510501 0.495278 0.798204 -0.355194
N2    N     N_R   0.488336 0.506215 0.201877 -0.354917
N3    N     N_2   0.950320 0.457960 0.486880 -0.168366
N4    N     N_2   0.049680 0.542040 0.513120 -0.168319
O1    O     O_R   0.389250 0.738570 0.503220 -0.554066
O2    O     O_2   0.355704 0.254475 0.205898 -0.442219
O3    O     O_2   0.627474 0.756567 0.200968 -0.514392
O4    O     O_2   0.352544 0.253197 0.799474 -0.518013
O5    O     O_3   0.713212 0.891371 0.870334 -0.683910
O6    O     O_3   0.355729 0.091854 0.129469 -0.684735
O7    O     O_3   0.182606 0.547488 0.259601 -0.740734
O8    O     O_3   0.814450 0.444419 0.740554 -0.737868
O9    O     O_3   0.611889 0.918897 0.970326 -0.751966
O10   O     O_3   0.357155 0.087141 0.028506 -0.758096
O11   O     O_3   0.698907 0.017938 0.459126 -0.765545
O12   O     O_R   0.610750 0.261430 0.496780 -0.554114
O13   O     O_3   0.301095 0.982062 0.540875 -0.765874
O14   O     O_R   0.678390 0.711630 0.494810 -0.648273
O15   O     O_R   0.321610 0.288370 0.505190 -0.648209
O16   O     O_R   0.355440 0.513440 0.575450 -0.618356
O17   O     O_R   0.644560 0.486560 0.424550 -0.618175
O18   O     O_R   0.644590 0.486500 0.567040 -0.634054
O19   O     O_R   0.355410 0.513500 0.432960 -0.634128
O20   O     O_2   0.661209 0.739501 0.793821 -0.442823
Zn1   Zn    Zn3+2 0.306940 0.517990 0.505620 0.987208
Zn2   Zn    Zn3+2 0.693060 0.482010 0.494380 0.987224

loop_
_geom_bond_atom_site_label_1
_geom_bond_atom_site_label_2
_ccdc_geom_bond_type
C18   O9    S    
C40   O5    S    
C27   C29   A    
H15   N4    S    
C24   C39   A    
C39   C41   A    
C33   H16   S    
C23   C42   A    
C31   H1    S    
C20   O11   S    
C17   O19   A    
C19   O10   S    
C35   C37   A    
H9    O9    S    
C15   H2    S    
C5    C11   A    
H8    O8    S    
C13   H4    S    
C11   C14   A    
H14   N3    S    
C14   H20   S    
C16   O18   A    
C33   C36   A    
C35   H17   S    
C25   N1    A    
C3    C29   A    
C26   N2    A    
C18   C40   A    
C22   N1    A    
C30   H18   S    
C31   C33   A    
C36   N1    S    
C2    C34   A    
O17   Zn2   S    
C24   N2    A    
H6    O6    S    
C28   O7    S    
C32   H12   S    
O19   Zn1   S    
C29   H19   S    
C34   C39   A    
C32   C35   A    
N4    Zn1   S    
C12   C21   S    
C8    C18   A    
C12   O12   A    
C17   O17   A    
H11   O11   S    
C5    C9    A    
H13   O13   S    
C21   O13   S    
C16   O16   A    
C2    C26   A    
O15   Zn1   S    
C3    C31   A    
H5    O5    S    
C4    C32   A    
C41   O6    S    
C4    C17   S    
C7    C19   A    
C13   C15   A    
C9    C34   A    
C10   C23   A    
H7    O7    S    
C11   H3    S    
C27   O8    S    
C37   N2    S    
N3    Zn2   S    
O12   Zn2   S    
C7    C9    A    
C1    C20   S    
O18   Zn2   S    
C15   C42   A    
H10   O10   S    
C25   C42   A    
C6    C10   A    
C5    C8    A    
C6    C7    A    
C27   C36   A    
C23   C38   A    
O1    Zn1   S    
C28   C30   A    
O14   Zn2   S    
C6    C13   A    
C38   C40   A    
C28   C37   A    
C1    O1    A    
C12   O15   A    
C22   O20   S    
C2    C14   A    
C24   O2    S    
C19   C41   A    
C20   C21   D    
C8    C10   A    
N3    N4    D    
C26   O3    S    
C1    O14   A    
C25   O4    S    
C4    C30   A    
C3    C16   S    
O16   Zn1   S    
C22   C38   A    
