data_str_m3_o14_o24_f0_pcu.sym.77
_audit_creation_date              2012-12-10T17:49:43-0500
_audit_creation_method            fapswitch 2.2
_symmetry_space_group_name_H-M    P1
_symmetry_Int_Tables_number       1
_space_group_crystal_system       triclinic
_cell_length_a                    10.521123
_cell_length_b                    10.66243
_cell_length_c                    9.942283
_cell_angle_alpha                 89.130427
_cell_angle_beta                  89.524942
_cell_angle_gamma                 90.31828
_cell_volume                      1115.14785729

loop_
_atom_site_label
_atom_site_type_symbol
_atom_type_description
_atom_site_fract_x
_atom_site_fract_y
_atom_site_fract_z
_atom_type_partial_charge
C1    C     C_R   0.504493 0.260615 0.500890 0.857443
C2    C     C_R   0.607104 0.064534 0.577550 0.113540
C3    C     C_R   0.513534 0.128089 0.501918 -0.080351
C4    C     C_R   0.257577 0.500299 0.500393 0.899451
C5    C     C_R   0.427048 0.064861 0.421848 -0.177549
C6    C     C_R   0.428381 0.936848 0.419303 -0.176515
C7    C     C_R   0.515382 0.871657 0.497734 -0.098704
C8    C     C_R   0.331071 0.342100 0.143229 -0.167517
C9    C     C_R   0.244006 0.268586 0.075566 -0.248467
C10   C     C_R   0.242646 0.268572 0.935543 -0.024211
C11   C     C_R   0.331481 0.341986 0.864320 -0.216216
C12   C     C_3   0.960495 0.474702 0.373763 -0.168474
C13   C     C_R   0.417222 0.421787 0.929853 0.142123
C14   C     C_R   0.417031 0.421995 0.074053 0.194637
C15   C     C_R   0.579098 0.575050 0.069462 -0.093301
C16   C     C_R   0.504396 0.739317 0.499164 0.877181
C17   C     C_R   0.578797 0.575196 0.926549 -0.083198
C18   C     C_R   0.742520 0.498517 0.499458 0.857205
C19   C     C_3   0.039469 0.522420 0.624827 -0.119183
C20   C     C_3   0.957499 0.408570 0.584799 -0.129410
C21   C     C_3   0.877735 0.497424 0.498186 -0.023657
C22   C     C_3   0.957126 0.611080 0.537935 -0.180400
C23   C     C_3   0.043138 0.386137 0.460556 -0.201149
C24   C     C_3   0.042250 0.587898 0.414356 0.173516
C25   C     C_2   0.885527 0.858116 0.806310 0.895449
C26   C     C_2   0.147383 0.192980 0.863372 0.935763
C27   C     C_3   0.122530 0.499921 0.500662 -0.036568
C28   C     C_R   0.701311 0.127934 0.651358 -0.210240
C29   C     C_R   0.791057 0.061441 0.725716 -0.192929
C30   C     C_R   0.791584 0.930167 0.726103 0.015609
C31   C     C_R   0.701624 0.867008 0.648929 -0.258456
C32   C     C_R   0.607735 0.933106 0.575759 0.090587
H1    H     H_    0.919262 0.335374 0.654803 0.144128
H2    H     H_    0.919347 0.703890 0.566016 0.164255
H3    H     H_    0.924874 0.455390 0.271278 0.171958
H4    H     H_    0.082840 0.294697 0.429289 0.156087
H5    H     H_    0.356483 0.114833 0.363272 0.150003
H6    H     H_    0.707697 0.229016 0.651945 0.160543
H7    H     H_    0.859820 0.113263 0.783110 0.202284
H8    H     H_    0.939540 0.690583 0.883349 0.352486
H9    H     H_    0.085676 0.125685 0.686457 0.345649
H10   H     H_    0.707646 0.766151 0.644770 0.179732
H11   H     H_    0.358758 0.888253 0.359212 0.188875
H12   H     H_    0.643802 0.636565 0.121305 0.162137
H13   H     H_    0.327358 0.333510 0.249683 0.204939
H14   H     H_    0.178000 0.210682 0.133622 0.190471
H15   H     H_    0.330510 0.335481 0.757982 0.242088
H16   H     H_    0.642637 0.637148 0.871427 0.194393
H17   H     H_    0.075423 0.541603 0.727200 0.166570
I1    I     I_    0.108240 0.731026 0.277736 -0.362647
N1    N     N_R   0.498800 0.498800 0.142780 -0.121870
N2    N     N_R   0.498760 0.498720 0.857170 -0.125103
O1    O     O_R   0.500000 0.316780 0.614690 -0.637742
O2    O     O_R   0.869810 0.728860 0.826456 -0.853233
O3    O     O_2   0.059460 0.143667 0.925800 -0.597584
O4    O     O_R   0.156658 0.179129 0.723904 -0.834233
O5    O     O_R   0.499990 0.316750 0.385360 -0.638987
O6    O     O_R   0.313960 0.499980 0.614650 -0.638017
O7    O     O_R   0.313940 0.499960 0.385310 -0.623960
O8    O     O_R   0.500010 0.683250 0.614640 -0.613558
O9    O     O_R   0.500000 0.683220 0.385310 -0.604205
O10   O     O_R   0.686060 0.500040 0.614690 -0.621501
O11   O     O_R   0.686040 0.500020 0.385350 -0.620892
O12   O     O_2   0.976748 0.911191 0.855566 -0.562033
Zn1   Zn    Zn3+2 0.500010 0.500020 0.653130 0.952841
Zn2   Zn    Zn3+2 0.499990 0.499980 0.346870 0.960120

loop_
_geom_bond_atom_site_label_1
_geom_bond_atom_site_label_2
_ccdc_geom_bond_type
O8    Zn1   S    
C2    C28   A    
C17   H16   S    
H9    O4    S    
C6    C7    A    
C7    C32   A    
C31   H10   S    
C5    H5    S    
C18   C21   S    
O1    Zn1   S    
C9    C10   A    
C19   H17   S    
O6    Zn1   S    
C11   H15   S    
C14   N1    A    
C24   C27   S    
C28   H6    S    
O5    Zn2   S    
C26   O3    D    
C10   C26   S    
C22   C24   S    
C2    C3    A    
O11   Zn2   S    
C9    H14   S    
C21   C22   S    
C20   C21   S    
C12   H3    S    
C11   C13   A    
C12   C23   S    
C29   H7    S    
C29   C30   A    
C16   O8    A    
C20   H1    S    
O9    Zn2   S    
C17   N2    A    
C28   C29   A    
C15   H12   S    
H8    O2    S    
C6    H11   S    
O7    Zn2   S    
C24   I1    S    
C5    C6    A    
C22   H2    S    
C15   N1    A    
C18   O11   A    
C16   O9    A    
N2    Zn1   S    
C1    O5    A    
C19   C20   S    
C13   C14   A    
C13   N2    A    
C19   C22   S    
C19   C27   S    
C25   O2    S    
C4    O7    A    
C2    C32   A    
C23   H4    S    
C10   C11   A    
C4    O6    A    
C25   C30   S    
C15   C17   A    
C1    O1    A    
C30   C31   A    
C7    C16   S    
C8    C14   A    
C4    C27   S    
O10   Zn1   S    
C3    C5    A    
C8    H13   S    
C20   C23   S    
C12   C21   S    
C25   O12   D    
C31   C32   A    
C18   O10   A    
C23   C27   S    
C12   C24   S    
C8    C9    A    
C1    C3    S    
N1    Zn2   S    
C26   O4    S    
