data_str_m3_o14_o16_f0_pcu.sym.218
_audit_creation_date              2012-12-10T17:42:40-0500
_audit_creation_method            fapswitch 2.2
_symmetry_space_group_name_H-M    P1
_symmetry_Int_Tables_number       1
_space_group_crystal_system       triclinic
_cell_length_a                    9.959295
_cell_length_b                    10.649822
_cell_length_c                    13.111254
_cell_angle_alpha                 91.284136
_cell_angle_beta                  69.640745
_cell_angle_gamma                 87.982045
_cell_volume                      1302.06716851

loop_
_atom_site_label
_atom_site_type_symbol
_atom_type_description
_atom_site_fract_x
_atom_site_fract_y
_atom_site_fract_z
_atom_type_partial_charge
C1    C     C_R   0.500642 0.739969 0.493163 0.875912
C2    C     C_R   0.442272 0.494595 0.982562 0.083486
C3    C     C_R   0.461445 0.448308 0.876663 0.075444
C4    C     C_R   0.546810 0.461453 0.028287 0.087367
C5    C     C_R   0.648130 0.360965 0.980357 0.187670
C6    C     C_R   0.652372 0.303607 0.882493 -0.278909
C7    C     C_R   0.565495 0.351269 0.828244 -0.196782
C8    C     C_R   0.547662 0.520544 0.123931 -0.264269
C9    C     C_R   0.729909 0.370118 0.133883 -0.221083
C10   C     C_R   0.366588 0.490666 0.825506 -0.170397
C11   C     C_R   0.340413 0.876287 0.368040 -0.180642
C12   C     C_R   0.419290 0.495362 0.705000 0.850946
C13   C     C_R   0.267023 0.944688 0.312789 -0.160566
C14   C     C_R   0.283261 0.073160 0.301809 -0.157159
C15   C     C_R   0.371997 0.133907 0.346925 -0.162020
C16   C     C_R   0.441122 0.067893 0.408479 0.090872
C17   C     C_R   0.427284 0.936944 0.418293 0.107330
C18   C     C_R   0.507391 0.872504 0.473646 -0.157916
C19   C     C_R   0.615431 0.932197 0.498167 -0.262884
C20   C     C_R   0.638715 0.056438 0.478134 0.094044
C21   C     C_R   0.532920 0.128153 0.453715 -0.187431
C22   C     C_R   0.792553 0.673102 0.637472 -0.156872
C23   C     C_R   0.510131 0.260890 0.484639 0.869329
C24   C     C_R   0.831418 0.762876 0.699440 -0.202380
C25   C     C_R   0.972007 0.765968 0.695036 -0.201224
C26   C     C_R   0.074100 0.678336 0.629571 -0.184870
C27   C     C_R   0.039451 0.587251 0.564742 0.149285
C28   C     C_R   0.894385 0.585554 0.566897 0.186890
C29   C     C_R   0.962405 0.421687 0.433105 -0.129780
C30   C     C_R   0.104525 0.420706 0.434058 -0.124798
C31   C     C_R   0.580289 0.497024 0.296070 0.845161
C32   C     C_R   0.739574 0.316361 0.033489 -0.201565
C33   C     C_R   0.630610 0.470167 0.179964 -0.046025
C34   C     C_R   0.226997 0.534583 0.892786 0.092414
C35   C     C_R   0.204091 0.575510 0.999732 -0.181212
C36   C     C_R   0.313333 0.562872 0.042159 -0.233172
H1    H     H_    0.791910 0.328055 0.178786 0.141032
H2    H     H_    0.331560 0.776003 0.365281 0.174621
H3    H     H_    0.201062 0.896930 0.275110 0.133557
H4    H     H_    0.230460 0.125228 0.255376 0.129378
H5    H     H_    0.392449 0.231157 0.327999 0.148497
H6    H     H_    0.937882 0.359499 0.376531 0.126330
H7    H     H_    0.681755 0.675867 0.647865 0.201494
H8    H     H_    0.751443 0.829739 0.752007 0.143209
H9    H     H_    0.001590 0.834598 0.744695 0.146378
H10   H     H_    0.177561 0.680210 0.635992 0.200830
H11   H     H_    0.723468 0.222548 0.847333 0.147005
H12   H     H_    0.184552 0.356339 0.379388 0.142738
H13   H     H_    0.812904 0.236043 0.000145 0.131346
H14   H     H_    0.477426 0.601449 0.160682 0.135728
H15   H     H_    0.287161 0.593848 0.126031 0.143059
H16   H     H_    0.099831 0.613439 0.052033 0.141237
H17   H     H_    0.571822 0.305009 0.752311 0.155152
H18   H     H_    0.689257 0.880548 0.527905 0.184803
N1    N     N_R   0.856860 0.501200 0.500990 -0.117769
N2    N     N_R   0.142450 0.501280 0.501020 -0.127721
O1    O     O_R   0.385310 0.683220 0.500000 -0.647659
O2    O     O_R   0.614640 0.683250 0.500010 -0.631877
O3    O     O_R   0.328400 0.499950 0.653610 -0.611023
O4    O     O_R   0.557730 0.499970 0.653620 -0.620864
O5    O     O_R   0.385360 0.316750 0.499990 -0.611713
O6    O     O_R   0.614690 0.316780 0.500000 -0.622730
O7    O     O_R   0.442270 0.500030 0.346380 -0.622034
O8    O     O_R   0.671600 0.500050 0.346390 -0.612808
Zn1   Zn    Zn3+2 0.346880 0.499980 0.499990 0.907730
Zn2   Zn    Zn3+2 0.653120 0.500020 0.500010 0.916979
C37   C     C_3   0.787285 0.098815 0.466306 -0.362477
C38   C     C_3   0.808719 0.116377 0.576317 -0.346737
C39   C     C_3   0.966285 0.095342 0.563908 -0.859878
H19   H     H_    0.006709 0.999697 0.528569 0.276057
H20   H     H_    0.032219 0.166426 0.510671 0.272084
H21   H     H_    0.977905 0.102764 0.644796 0.239645
H22   H     H_    0.771861 0.213096 0.609966 0.240598
H23   H     H_    0.745389 0.049033 0.635835 0.211958
H24   H     H_    0.866006 0.025402 0.415397 0.191945
H25   H     H_    0.815067 0.183590 0.417780 0.195333
C40   C     C_3   0.098379 0.519438 0.859468 -0.393146
C41   C     C_3   0.081125 0.379691 0.837246 -0.305107
C42   C     C_3   0.993337 0.362485 0.764022 -0.839563
H26   H     H_    0.958941 0.264608 0.768624 0.226544
H27   H     H_    0.898305 0.429012 0.788512 0.276075
H28   H     H_    0.060660 0.377564 0.678650 0.280273
H29   H     H_    0.186176 0.328258 0.797189 0.221245
H30   H     H_    0.029098 0.335089 0.916049 0.207330
H31   H     H_    0.998252 0.556868 0.923960 0.187245
H32   H     H_    0.109626 0.575570 0.788719 0.221474

loop_
_geom_bond_atom_site_label_1
_geom_bond_atom_site_label_2
_ccdc_geom_bond_type
O7    Zn1   S    
C16   C21   A    
C25   H9    S    
C29   H6    S    
C39   H21   S    
C20   C37   S    
C35   C36   A    
C4    C8    A    
C40   C41   S    
C26   C27   A    
C30   H12   S    
C34   C35   A    
C3    C7    A    
C34   C40   S    
C5    C6    A    
C38   H23   S    
N2    Zn1   S    
C18   C19   A    
C39   H20   S    
C9    C32   A    
C12   O3    A    
C41   H29   S    
O2    Zn2   S    
C23   O6    A    
C19   C20   A    
C16   C17   A    
C31   C33   S    
C5    C32   A    
O4    Zn2   S    
C22   C28   A    
C13   C14   A    
C9    C33   A    
C28   N1    A    
C6    H11   S    
O6    Zn2   S    
C37   C38   S    
C31   O7    A    
C24   C25   A    
C15   H5    S    
C42   H27   S    
C41   C42   S    
C38   C39   S    
C29   N1    A    
C25   C26   A    
C30   N2    A    
O8    Zn2   S    
C11   H2    S    
C2    C4    A    
C29   C30   A    
C1    O1    A    
C22   H7    S    
C9    H1    S    
C17   C18   A    
C1    C18   S    
C10   C34   A    
C36   H15   S    
C10   C12   S    
C19   H18   S    
C40   H32   S    
C21   C23   S    
C24   H8    S    
C22   C24   A    
C37   H24   S    
C7    H17   S    
C8    H14   S    
C27   C28   A    
N1    Zn2   S    
C2    C36   A    
C11   C17   A    
C27   N2    A    
C31   O8    A    
O1    Zn1   S    
C4    C5    A    
C42   H28   S    
C6    C7    A    
C2    C3    A    
C38   H22   S    
C3    C10   A    
C1    O2    A    
O3    Zn1   S    
C11   C13   A    
C40   H31   S    
C8    C33   A    
O5    Zn1   S    
C39   H19   S    
C32   H13   S    
C13   H3    S    
C26   H10   S    
C14   H4    S    
C42   H26   S    
C12   O4    A    
C41   H30   S    
C23   O5    A    
C20   C21   A    
C35   H16   S    
C14   C15   A    
C37   H25   S    
C15   C16   A    
