data_str_m9_o4_o16_f0_sra.sym.113
_audit_creation_date              2012-12-11T17:00:15-0500
_audit_creation_method            fapswitch 2.2
_symmetry_space_group_name_H-M    P1
_symmetry_Int_Tables_number       1
_space_group_crystal_system       triclinic
_cell_length_a                    6.954867
_cell_length_b                    13.573932
_cell_length_c                    20.248805
_cell_angle_alpha                 103.086525
_cell_angle_beta                  90.035814
_cell_angle_gamma                 90.480627
_cell_volume                      1861.86914242

loop_
_atom_site_label
_atom_site_type_symbol
_atom_type_description
_atom_site_fract_x
_atom_site_fract_y
_atom_site_fract_z
_atom_type_partial_charge
O1    O     O_R   0.506770 0.599700 0.449550 -0.533281
O2    O     O_R   0.179980 0.595740 0.587960 -0.525243
O3    O     O_R   0.004580 0.400300 0.550450 -0.544111
C1    C     C_R   0.348086 0.616520 0.615472 0.724064
O4    O     O_R   0.177380 0.611700 0.452380 -0.534047
O5    O     O_R   0.001970 0.416370 0.413900 -0.545559
C2    C     C_R   0.346777 0.638510 0.435873 0.715447
O6    O     O_R   0.509390 0.583630 0.586100 -0.534581
O7    O     O_3   0.337530 0.435890 0.487530 -0.383593
V1    V     V_3+5 0.064660 0.511890 0.502310 1.481126
O8    O     O_R   0.671950 0.404260 0.412040 -0.545010
C3    C     C_R   0.840489 0.382701 0.384833 0.687938
O9    O     O_R   0.674540 0.388300 0.547620 -0.546214
C4    C     C_R   0.843419 0.361836 0.564441 0.681046
V2    V     V_3+5 0.564030 0.488110 0.497690 1.448163
O10   O     O_3   0.841030 0.564110 0.512470 -0.341701
C5    C     C_R   0.952312 0.117577 0.612676 -0.136396
H1    H     H_    0.942257 0.166641 0.519274 0.105372
H2    H     H_    0.020231 0.998948 0.697216 0.176047
H3    H     H_    0.000471 0.042592 0.587842 0.141972
C6    C     C_R   0.855974 0.284697 0.604171 -0.031113
C7    C     C_R   0.798921 0.313312 0.930247 -0.152197
C8    C     C_R   0.768043 0.387648 0.894338 -0.124595
C9    C     C_R   0.790718 0.366227 0.824171 -0.160869
C10   C     C_R   0.847579 0.268956 0.787904 0.081290
C11   C     C_R   0.885398 0.194057 0.825476 0.064694
C12   C     C_R   0.867121 0.243281 0.715737 0.070417
C13   C     C_R   0.929072 0.144540 0.683308 0.134024
C14   C     C_R   0.969870 0.073642 0.721504 -0.173143
C15   C     C_R   0.947359 0.097580 0.791320 -0.208298
C16   C     C_R   0.829145 0.312228 0.674407 -0.217507
C17   C     C_R   0.917868 0.187610 0.573480 -0.179784
C18   C     C_R   0.857758 0.216821 0.896616 -0.078291
H4    H     H_    0.783940 0.388713 0.695114 0.089210
H5    H     H_    0.775186 0.330783 0.984543 0.125106
H6    H     H_    0.762316 0.427587 0.800024 0.102011
H7    H     H_    0.723284 0.462285 0.920994 0.119471
H8    H     H_    0.980576 0.039658 0.818416 0.123491
C19   C     C_R   0.726016 0.260548 0.200963 0.080628
C20   C     C_R   0.868622 0.187359 0.182870 -0.114818
C21   C     C_R   0.017207 0.187829 0.230532 -0.138692
H9    H     H_    0.134641 0.135036 0.218459 0.119616
C22   C     C_R   0.008965 0.251917 0.296048 -0.191836
H10   H     H_    0.120656 0.246847 0.332337 0.121446
C23   C     C_R   0.851642 0.317006 0.315753 -0.106632
C24   C     C_R   0.717540 0.323197 0.265343 0.114312
C25   C     C_3   0.503107 0.324948 0.264832 -0.463257
C26   C     C_3   0.512499 0.256432 0.193550 -0.184449
H11   H     H_    0.446814 0.402075 0.266935 0.175361
H12   H     H_    0.440844 0.286552 0.302932 0.162812
H13   H     H_    0.452127 0.179347 0.190224 0.110469
C27   C     C_R   0.498920 0.757001 0.703377 0.118689
C28   C     C_R   0.351108 0.686265 0.683286 -0.137834
C29   C     C_R   0.195552 0.688616 0.728369 -0.119086
H14   H     H_    0.076660 0.636121 0.714684 0.124426
C30   C     C_R   0.197485 0.754105 0.793270 -0.183507
H15   H     H_    0.080751 0.750094 0.827808 0.121539
C31   C     C_R   0.355779 0.818480 0.815107 -0.109010
C32   C     C_R   0.501800 0.821113 0.767713 0.072328
C33   C     C_3   0.714081 0.811325 0.773908 -0.438457
C34   C     C_3   0.710210 0.741401 0.703574 0.116857
H16   H     H_    0.752388 0.772043 0.814562 0.142807
H17   H     H_    0.790638 0.884145 0.776402 0.198962
H18   H     H_    0.747803 0.661792 0.702919 0.087281
C35   C     C_R   0.429533 0.887285 0.388972 -0.162112
H19   H     H_    0.425682 0.837241 0.482155 0.133437
H20   H     H_    0.472223 0.010563 0.305451 0.120318
H21   H     H_    0.465936 0.964364 0.414369 0.116376
C36   C     C_R   0.359291 0.715664 0.396182 -0.038887
C37   C     C_R   0.301816 0.686204 0.070177 -0.177135
C38   C     C_R   0.272381 0.611586 0.106065 -0.108789
C39   C     C_R   0.293054 0.633656 0.176330 -0.128056
C40   C     C_R   0.342998 0.732497 0.212886 0.069005
C41   C     C_R   0.372955 0.808790 0.175636 0.069842
C42   C     C_R   0.361770 0.758477 0.285071 0.075990
C43   C     C_R   0.408909 0.859874 0.318169 0.142555
C44   C     C_R   0.436443 0.933168 0.280517 -0.207139
C45   C     C_R   0.419143 0.908210 0.210438 -0.202251
C46   C     C_R   0.336707 0.687321 0.325793 -0.213945
C47   C     C_R   0.406046 0.815378 0.427684 -0.147392
C48   C     C_R   0.352538 0.784380 0.104145 -0.072175
H22   H     H_    0.303642 0.608832 0.304587 0.093662
H23   H     H_    0.282452 0.667685 0.015631 0.101824
H24   H     H_    0.266752 0.571719 0.200325 0.123218
H25   H     H_    0.230893 0.536081 0.079222 0.127544
H26   H     H_    0.442100 0.967978 0.183744 0.113788
O11   O     O_R   0.203450 0.916320 0.913910 -0.546529
O12   O     O_R   0.535520 0.888300 0.047620 -0.544279
O13   O     O_R   0.710860 0.083650 0.086100 -0.549897
C49   C     C_R   0.366091 0.861899 0.064447 0.676936
O14   O     O_R   0.532860 0.904250 0.912040 -0.544177
O15   O     O_R   0.708190 0.099710 0.949550 -0.536685
C50   C     C_R   0.364336 0.883251 0.884594 0.693713
O16   O     O_R   0.206120 0.900260 0.050460 -0.542451
O17   O     O_3   0.375280 0.064080 0.012470 -0.348843
V3    V     V_3+5 0.648180 0.988110 0.997690 1.431124
O18   O     O_R   0.038220 0.111740 0.952370 -0.532173
C51   C     C_R   0.869403 0.138519 0.935830 0.700466
O19   O     O_R   0.040880 0.095790 0.087940 -0.518632
C52   C     C_R   0.872870 0.117090 0.115259 0.712150
V4    V     V_3+5 0.148800 0.011950 0.002300 1.476909
O20   O     O_3   0.871820 0.935920 0.987530 -0.380128
C53   C     C_2   0.445224 0.306571 0.138618 0.791629
O21   O     O_2   0.308750 0.270802 0.102898 -0.552478
O22   O     O_R   0.539483 0.393196 0.128170 -0.670179
H27   H     H_    0.486091 0.416865 0.087901 0.279112
Br1   Br    Br    0.835452 0.797924 0.634717 -0.580579

loop_
_geom_bond_atom_site_label_1
_geom_bond_atom_site_label_2
_ccdc_geom_bond_type
O12   V3    S    
V4    O20   S    
V3    O20   S    
C1    C28   S    
C40   C42   A    
C21   H9    S    
C29   H14   S    
O17   V3    S    
H20   C44   S    
C1    O6    A    
O18   C51   A    
O15   C51   A    
C25   H11   S    
C44   C45   A    
C7    H5    S    
C6    C16   A    
C9    H6    S    
C35   C43   A    
C33   H17   S    
C4    C6    S    
C13   C14   A    
C31   C50   S    
C27   C34   S    
O5    C3    A    
V2    O10   S    
O15   V3    S    
C5    H3    S    
C30   H15   S    
C15   H8    S    
C33   H16   S    
C18   C51   S    
C40   C41   A    
C37   C48   A    
O14   V3    S    
C38   H25   S    
O8    V2    S    
C26   H13   S    
C25   C26   S    
O16   V4    S    
C8    C9    A    
C37   C38   A    
O1    V2    S    
O7    V1    S    
C45   H26   S    
C32   C33   S    
C35   C47   A    
O11   V4    S    
O9    C4    A    
C21   C22   A    
C49   O16   A    
C25   H12   S    
C6    C17   A    
C29   C30   A    
O13   C52   A    
C12   C16   A    
C43   C44   A    
C19   C20   A    
O4    C2    A    
C3    C23   S    
C10   C11   A    
C23   C24   A    
C26   C53   S    
C33   C34   S    
C34   H18   S    
O2    C1    A    
C42   C43   A    
C20   C52   S    
C14   C15   A    
C27   C32   A    
O14   C50   A    
C11   C18   A    
O19   C52   A    
C35   H21   S    
C16   H4    S    
C53   O22   S    
C9    C10   A    
C37   H23   S    
C22   C23   A    
C39   H24   S    
O3    C4    A    
C19   C24   A    
C48   C49   S    
C20   C21   A    
O19   V4    S    
O12   C49   A    
C11   C15   A    
O6    V2    S    
O9    V2    S    
C22   H10   S    
C36   C46   A    
H1    C17   S    
C41   C48   A    
O2    V1    S    
C12   C13   A    
C27   C28   A    
C7    C18   A    
C24   C25   S    
O1    C2    A    
C5    C13   A    
C39   C40   A    
O5    V1    S    
C46   H22   S    
O8    C3    A    
C28   C29   A    
C10   C12   A    
H19   C47   S    
O22   H27   S    
O13   V3    S    
C2    C36   S    
O7    V2    S    
C38   C39   A    
O3    V1    S    
C8    H7    S    
O11   C50   A    
C30   C31   A    
C34   Br1   S    
C31   C32   A    
O4    V1    S    
C41   C45   A    
C53   O21   D    
C5    C17   A    
C7    C8    A    
C36   C47   A    
V1    O10   S    
C42   C46   A    
O18   V4    S    
O17   V4    S    
C19   C26   S    
H2    C14   S    
