data_str_m2_o10_o17_f0_pcu.sym.124
_audit_creation_date              2012-12-10T16:44:39-0500
_audit_creation_method            fapswitch 2.2
_symmetry_space_group_name_H-M    P1
_symmetry_Int_Tables_number       1
_space_group_crystal_system       triclinic
_cell_length_a                    15.033987
_cell_length_b                    8.671182
_cell_length_c                    7.444106
_cell_angle_alpha                 102.91457
_cell_angle_beta                  94.868555
_cell_angle_gamma                 92.464104
_cell_volume                      940.551320923

loop_
_atom_site_label
_atom_site_type_symbol
_atom_type_description
_atom_site_fract_x
_atom_site_fract_y
_atom_site_fract_z
_atom_type_partial_charge
C1    C     C_R   0.497444 0.199669 0.453223 0.889562
C2    C     C_R   0.503008 0.800358 0.546793 0.875517
C3    C     C_R   0.025624 0.295854 0.210329 -0.196344
C4    C     C_R   0.973003 0.691535 0.798498 -0.184101
C5    C     C_2   0.496352 0.031786 0.426856 -0.363805
C6    C     C_2   0.504801 0.968291 0.573236 -0.377545
C7    C     C_R   0.328643 0.496437 0.500251 0.857304
C8    C     C_R   0.671118 0.503321 0.499228 0.832447
C9    C     C_R   0.822874 0.607157 0.646014 0.379172
C10   C     C_R   0.176298 0.401043 0.345888 0.375694
C11   C     C_R   0.767660 0.508481 0.498439 -0.169253
C12   C     C_R   0.231658 0.492850 0.498927 -0.168565
C13   C     C_R   0.804519 0.409882 0.352395 -0.310945
C14   C     C_R   0.194590 0.585131 0.649680 -0.348283
C15   C     C_R   0.896718 0.404098 0.353347 0.118500
C16   C     C_R   0.102299 0.589131 0.650531 0.118470
C17   C     C_R   0.952918 0.499950 0.501435 0.022192
C18   C     C_R   0.046142 0.495403 0.500956 0.032347
C19   C     C_R   0.916041 0.600327 0.649718 0.009034
C20   C     C_R   0.082940 0.396778 0.351218 0.004912
C21   C     C_R   0.933394 0.301154 0.210225 -0.202236
C22   C     C_R   0.065382 0.685522 0.798988 -0.227191
Cu1   Cu    Cu3+1 0.510010 0.517380 0.684380 0.960944
Cu2   Cu    Cu3+1 0.489990 0.482620 0.315620 0.956351
H1    H     H_    0.761122 0.334208 0.240349 0.173430
H2    H     H_    0.237912 0.656518 0.765015 0.173196
H3    H     H_    0.890726 0.224646 0.097951 0.143347
H4    H     H_    0.108023 0.757181 0.915016 0.147725
H5    H     H_    0.051552 0.213185 0.098488 0.177605
H6    H     H_    0.946478 0.767954 0.914853 0.182646
H7    H     H_    0.488391 0.960106 0.285823 0.177963
H8    H     H_    0.512901 0.039954 0.714284 0.178789
H9    H     H_    0.430220 0.376931 0.947692 0.225074
H10   H     H_    0.569917 0.623057 0.052150 0.232495
N1    N     N_2   0.474890 0.456420 0.038520 -0.224394
N2    N     N_2   0.525110 0.543580 0.961480 -0.215095
O1    O     O_R   0.506510 0.286130 0.619770 -0.590038
O2    O     O_R   0.493490 0.713870 0.380230 -0.590285
O3    O     O_R   0.489600 0.256770 0.308360 -0.581084
O4    O     O_R   0.510400 0.743230 0.691640 -0.590754
O5    O     O_R   0.378710 0.514640 0.655720 -0.602656
O6    O     O_R   0.621290 0.485360 0.344280 -0.599141
O7    O     O_R   0.361800 0.485290 0.344300 -0.563423
O8    O     O_R   0.638200 0.514710 0.655700 -0.535726
O9    O     O_3   0.785677 0.704556 0.790550 -0.571082
C23   C     C_3   0.769833 0.850515 0.742966 0.068775
H11   H     H_    0.722427 0.833207 0.615628 0.129393
H12   H     H_    0.833513 0.910953 0.720594 0.134695
C24   C     C_3   0.728572 0.958141 0.900484 -0.785445
H13   H     H_    0.774796 0.979802 0.029376 0.235319
H14   H     H_    0.715796 0.073444 0.864762 0.201025
H15   H     H_    0.664244 0.901964 0.924731 0.257732
O10   O     O_3   0.213960 0.301996 0.202976 -0.579124
C25   C     C_3   0.208867 0.366804 0.043923 0.074730
H16   H     H_    0.259893 0.466766 0.060902 0.173195
H17   H     H_    0.142307 0.411762 0.013199 0.136932
C26   C     C_3   0.226836 0.238348 0.877417 -0.776557
H18   H     H_    0.174711 0.139312 0.853718 0.239105
H19   H     H_    0.225608 0.287201 0.751836 0.213883
H20   H     H_    0.293402 0.191927 0.901787 0.243570

loop_
_geom_bond_atom_site_label_1
_geom_bond_atom_site_label_2
_ccdc_geom_bond_type
C5    H7    S    
C6    H8    S    
Cu1   Cu2   S    
C25   H17   S    
C9    O9    S    
C7    O7    A    
C4    C22   A    
C2    O2    A    
Cu2   O2    S    
N1    N2    D    
Cu1   O5    S    
C1    O1    A    
C9    C11   A    
C24   H15   S    
C7    O5    A    
C17   C18   A    
C21   H3    S    
C3    C20   A    
C22   H4    S    
O9    C23   S    
C14   H2    S    
C11   C13   A    
C23   C24   S    
C13   H1    S    
C26   H18   S    
C2    C6    S    
C10   C12   A    
C8    C11   S    
C1    C5    S    
C16   C18   A    
C17   C19   A    
Cu1   O1    S    
C12   C14   A    
C24   H13   S    
H10   N2    S    
C13   C15   A    
C5    C6    D    
C14   C16   A    
C7    C12   S    
C26   H19   S    
Cu2   N1    S    
C3    C21   A    
C1    O3    A    
C8    O6    A    
Cu1   O4    S    
C23   H12   S    
C2    O4    A    
C15   C21   A    
Cu2   O3    S    
Cu2   O6    S    
C10   O10   S    
C18   C20   A    
C15   C17   A    
Cu1   N2    S    
C3    H5    S    
Cu2   O7    S    
C23   H11   S    
C26   H20   S    
C16   C22   A    
H9    N1    S    
C25   H16   S    
C4    C19   A    
C9    C19   A    
C4    H6    S    
Cu1   O8    S    
C8    O8    A    
O10   C25   S    
C10   C20   A    
C24   H14   S    
C25   C26   S    
