data_str_m3_o1_o16_f0_pcu.sym.62
_audit_creation_date              2012-12-10T18:46:20-0500
_audit_creation_method            fapswitch 2.2
_symmetry_space_group_name_H-M    P1
_symmetry_Int_Tables_number       1
_space_group_crystal_system       triclinic
_cell_length_a                    9.983722
_cell_length_b                    10.617031
_cell_length_c                    13.099801
_cell_angle_alpha                 90.555244
_cell_angle_beta                  71.004795
_cell_angle_gamma                 89.196195
_cell_volume                      1312.65537248

loop_
_atom_site_label
_atom_site_type_symbol
_atom_type_description
_atom_site_fract_x
_atom_site_fract_y
_atom_site_fract_z
_atom_type_partial_charge
C1    C     C_R   0.498011 0.739476 0.503108 0.946084
C2    C     C_R   0.381081 0.428822 0.813810 -0.264933
C3    C     C_R   0.549354 0.937429 0.577858 0.379980
C4    C     C_R   0.423745 0.476531 0.700873 0.933171
C5    C     C_R   0.552468 0.066736 0.574145 -0.126104
C6    C     C_R   0.500468 0.128272 0.501130 -0.039189
C7    C     C_R   0.442571 0.063871 0.432779 -0.140382
C8    C     C_R   0.440357 0.934812 0.435223 -0.178859
C9    C     C_R   0.495168 0.872313 0.506491 -0.124815
C10   C     C_R   0.955967 0.406098 0.447028 0.510638
C11   C     C_R   0.097191 0.407255 0.449072 -0.028417
C12   C     C_R   0.442930 0.428893 0.979972 -0.008127
C13   C     C_R   0.047689 0.593201 0.551599 -0.004388
C14   C     C_R   0.904693 0.592873 0.552004 -0.150036
C15   C     C_R   0.500762 0.260602 0.499504 0.876132
C16   C     C_R   0.578413 0.502282 0.296417 0.945144
C17   C     C_R   0.785975 0.535974 0.000362 -0.174672
C18   C     C_R   0.625128 0.497510 0.179220 -0.180772
C19   C     C_R   0.239022 0.404819 0.874443 0.406422
C20   C     C_R   0.197276 0.409511 0.986891 -0.177009
C21   C     C_R   0.295363 0.432530 0.039733 0.345979
C22   C     C_R   0.483839 0.415973 0.866317 -0.008370
C23   C     C_R   0.552658 0.449469 0.025007 0.112053
C24   C     C_R   0.689702 0.479884 0.957092 0.098991
C25   C     C_R   0.728044 0.448263 0.848257 -0.151901
C26   C     C_R   0.628653 0.399126 0.807741 -0.128846
C27   C     C_R   0.533288 0.439187 0.133848 -0.225503
C28   C     C_R   0.749762 0.553781 0.112049 0.416944
Cl1   Cl    Cl    0.221765 0.482147 0.175618 -0.527450
Cl2   Cl    Cl    0.606545 0.861765 0.676050 -0.592236
H1    H     H_    0.592544 0.119335 0.629121 0.174436
H2    H     H_    0.086032 0.403438 0.033793 0.243681
H3    H     H_    0.665837 0.358372 0.727199 0.176130
H4    H     H_    0.808912 0.802557 0.283628 0.393580
H5    H     H_    0.043374 0.133094 0.263804 0.399259
H6    H     H_    0.927826 0.247265 0.859885 0.390883
H7    H     H_    0.401411 0.113374 0.376999 0.169002
H8    H     H_    0.398660 0.883665 0.380471 0.189833
H9    H     H_    0.172082 0.333144 0.409824 0.192557
H10   H     H_    0.081685 0.668230 0.593417 0.172192
H11   H     H_    0.832490 0.667310 0.594298 0.217468
H12   H     H_    0.833504 0.458015 0.794082 0.219333
H13   H     H_    0.885799 0.569774 0.947385 0.224906
H14   H     H_    0.447210 0.384432 0.184252 0.215619
N1    N     N_R   0.142790 0.500030 0.500030 -0.107536
N2    N     N_R   0.857180 0.499940 0.500010 -0.152474
O1    O     O_R   0.385370 0.683250 0.500010 -0.629490
O2    O     O_2   0.964339 0.717320 0.072838 -0.262238
O3    O     O_3   0.749029 0.762376 0.245775 -0.569131
O4    O     O_2   0.849803 0.175166 0.459551 -0.323315
O5    O     O_2   0.826680 0.304351 0.311394 -0.254269
O6    O     O_3   0.071360 0.210275 0.294261 -0.557561
O7    O     O_2   0.066816 0.485658 0.773061 -0.352004
O8    O     O_2   0.176087 0.276322 0.720311 -0.297208
O9    O     O_3   0.971743 0.298587 0.903589 -0.571281
O10   O     O_R   0.614700 0.683220 0.500010 -0.576244
O11   O     O_R   0.328400 0.499990 0.653620 -0.523863
O12   O     O_R   0.557730 0.499960 0.653620 -0.632851
O13   O     O_R   0.385300 0.316780 0.499990 -0.614333
O14   O     O_R   0.614630 0.316750 0.499990 -0.576002
O15   O     O_R   0.442270 0.500040 0.346380 -0.613791
O16   O     O_R   0.671600 0.500010 0.346380 -0.518453
O17   O     O_2   0.927386 0.576246 0.225961 -0.227662
S1    S     S_3+6 0.854694 0.652986 0.163243 0.060459
S2    S     S_3+6 0.918910 0.272953 0.378050 0.064451
S3    S     S_3+6 0.111848 0.366045 0.813554 -0.001515
Zn1   Zn    Zn3+2 0.346870 0.500020 0.500000 1.048135
Zn2   Zn    Zn3+2 0.653130 0.499980 0.500000 1.069766

loop_
_geom_bond_atom_site_label_1
_geom_bond_atom_site_label_2
_ccdc_geom_bond_type
C25   H12   S    
C2    C22   A    
C3    Cl2   S    
C2    C4    S    
C23   C24   A    
C17   H13   S    
N1    Zn1   S    
C6    C7    A    
C3    C9    A    
C23   C27   A    
C15   O14   A    
O15   Zn1   S    
C26   H3    S    
C19   C20   A    
O16   Zn2   S    
C6    C15   S    
C10   C11   A    
C3    C5    A    
C7    H7    S    
C1    C9    S    
C7    C8    A    
C14   N2    A    
H6    O9    S    
O10   Zn2   S    
C13   C14   A    
C24   C25   A    
C13   N1    A    
O7    S3    D    
C12   C23   A    
C16   O16   A    
O11   Zn1   S    
C14   H11   S    
O8    S3    D    
O5    S2    D    
C28   S1    S    
O12   Zn2   S    
C1    O10   A    
C11   N1    A    
C8    H8    S    
C22   C26   A    
C5    C6    A    
C11   H9    S    
O4    S2    D    
C15   O13   A    
N2    Zn2   S    
C17   C24   A    
O2    S1    D    
C16   O15   A    
O6    S2    S    
C4    O12   A    
O17   S1    D    
C12   C21   A    
C12   C22   A    
C10   N2    A    
O9    S3    S    
C18   C28   A    
C20   C21   A    
O14   Zn2   S    
C19   S3    S    
C16   C18   S    
C20   H2    S    
C10   S2    S    
O1    Zn1   S    
H5    O6    S    
O3    S1    S    
C1    O1    A    
C13   H10   S    
C5    H1    S    
O13   Zn1   S    
C25   C26   A    
C2    C19   A    
C17   C28   A    
C21   Cl1   S    
C27   H14   S    
C18   C27   A    
C4    O11   A    
C8    C9    A    
H4    O3    S    
