data_str_m2_o10_o25_f0_pcu.sym.73
_audit_creation_date              2012-10-26T18:26:38-0400
_audit_creation_method            fapswitch 2.2
_symmetry_space_group_name_H-M    P1
_symmetry_Int_Tables_number       1
_space_group_crystal_system       triclinic
_cell_length_a                    15.827004
_cell_length_b                    8.709746
_cell_length_c                    7.42917
_cell_angle_alpha                 102.029645
_cell_angle_beta                  94.121864
_cell_angle_gamma                 91.968248
_cell_volume                      997.746860993

loop_
_atom_site_label
_atom_site_type_symbol
_atom_type_description
_atom_site_fract_x
_atom_site_fract_y
_atom_site_fract_z
_atom_type_partial_charge
C1    C     C_R   0.494968 0.200782 0.456043 0.570570
C2    C     C_3   0.976526 0.638369 0.586198 0.226361
C3    C     C_1   0.250580 0.501698 0.507911 0.067697
C4    C     C_1   0.749437 0.498379 0.492102 0.077168
C5    C     C_3   0.032637 0.530137 0.677727 -0.134065
C6    C     C_3   0.967397 0.469811 0.322147 -0.123542
C7    C     C_3   0.083332 0.502063 0.505449 -0.005137
C8    C     C_3   0.916702 0.497881 0.494451 -0.011867
C9    C     C_1   0.175061 0.502475 0.508720 0.046429
C10   C     C_1   0.824965 0.497498 0.491252 0.042634
C11   C     C_R   0.505025 0.799223 0.543940 0.591297
C12   C     C_R   0.339983 0.500205 0.502558 0.558696
C13   C     C_R   0.660027 0.499968 0.497467 0.580903
C14   C     C_2   0.477748 0.037185 0.442208 0.141519
C15   C     C_2   0.522420 0.962824 0.557667 0.183606
C16   C     C_3   0.971682 0.387306 0.584463 -0.121708
C17   C     C_3   0.028344 0.612680 0.415423 -0.111431
C18   C     C_3   0.023512 0.361593 0.413682 0.232744
Cu1   Cu    Cu3+1 0.509330 0.517380 0.684380 1.126788
Cu2   Cu    Cu3+1 0.490670 0.482620 0.315620 1.119888
H1    H     H_    0.947656 0.293557 0.651332 0.193326
H2    H     H_    0.638512 0.205706 0.967595 0.372516
H3    H     H_    0.052360 0.706465 0.348598 0.194479
H4    H     H_    0.939953 0.443145 0.176594 0.167280
H5    H     H_    0.060074 0.556783 0.823286 0.154904
H6    H     H_    0.435041 0.377921 0.948998 0.264268
H7    H     H_    0.564957 0.622076 0.051007 0.256237
H8    H     H_    0.934798 0.057089 0.309682 0.368485
H9    H     H_    0.065374 0.896649 0.853621 0.371494
H10   H     H_    0.300161 0.143355 0.364708 0.349123
N1    N     N_2   0.476600 0.456420 0.038510 -0.220879
N2    N     N_2   0.523400 0.543580 0.961490 -0.229177
O1    O     O_R   0.506070 0.286130 0.619780 -0.488481
O2    O     O_2   0.105985 0.099291 0.432126 -0.232144
O3    O     O_3   0.970023 0.059016 0.205210 -0.432407
O4    O     O_2   0.885612 0.890817 0.572494 -0.224850
O5    O     O_2   0.897893 0.805027 0.866671 -0.216346
O6    O     O_3   0.029303 0.948515 0.771859 -0.419023
O7    O     O_2   0.411575 0.858636 0.119583 -0.208521
O8    O     O_2   0.333230 0.850865 0.390426 -0.284918
O9    O     O_3   0.324878 0.097872 0.247729 -0.452803
O10   O     O_2   0.668479 0.917626 0.747726 -0.231342
O11   O     O_2   0.666932 0.147256 0.606211 -0.291599
O12   O     O_R   0.493930 0.713870 0.380220 -0.490297
O13   O     O_3   0.585173 0.155157 0.899754 -0.487357
O14   O     O_R   0.490300 0.256770 0.308360 -0.454761
O15   O     O_R   0.509700 0.743230 0.691640 -0.450651
O16   O     O_R   0.386960 0.514660 0.655680 -0.514034
O17   O     O_R   0.613040 0.485340 0.344320 -0.532059
O18   O     O_R   0.371190 0.485310 0.344260 -0.462373
O19   O     O_R   0.628810 0.514690 0.655740 -0.466806
O20   O     O_2   0.110192 0.197717 0.146742 -0.212983
S1    S     S_3+6 0.055866 0.175159 0.297837 0.063462
S2    S     S_3+6 0.943957 0.824514 0.702276 0.079990
S3    S     S_3+6 0.385237 0.954491 0.297362 0.058665
S4    S     S_3+6 0.614973 0.045951 0.702247 0.051032

loop_
_geom_bond_atom_site_label_1
_geom_bond_atom_site_label_2
_ccdc_geom_bond_type
H9    O6    S    
C6    C8    S    
H10   O9    S    
C7    C9    S    
C16   H1    S    
C3    C9    T    
Cu1   O19   S    
O3    S1    S    
C11   O15   A    
N1    N2    D    
O6    S2    S    
C12   O16   A    
O8    S3    D    
C6    H4    S    
C15   S4    S    
C7    C18   S    
C14   S3    S    
C1    O1    A    
C11   O12   A    
C8    C16   S    
C17   H3    S    
C2    C17   S    
C1    C14   S    
Cu2   O17   S    
C13   O17   A    
O5    S2    D    
C8    C10   S    
Cu2   O12   S    
Cu1   O15   S    
Cu1   O1    S    
C6    C18   S    
C5    H5    S    
C1    O14   A    
C2    C5    S    
O4    S2    D    
Cu1   N2    S    
C4    C10   T    
Cu2   O14   S    
O11   S4    D    
H6    N1    S    
H2    O13   S    
O20   S1    D    
H8    O3    S    
O2    S1    D    
C16   C18   S    
C2    S2    S    
C2    C8    S    
C4    C13   S    
C5    C7    S    
C6    C17   S    
C14   C15   D    
O9    S3    S    
C5    C16   S    
Cu2   O18   S    
C3    C12   S    
Cu1   O16   S    
C18   S1    S    
O10   S4    D    
H7    N2    S    
C13   O19   A    
C11   C15   S    
O7    S3    D    
Cu1   Cu2   S    
O13   S4    S    
C12   O18   A    
C7    C17   S    
Cu2   N1    S    
