data_str_m4_o22_o24_f0_acs.sym.25
_audit_creation_date              2012-12-11T15:08:45-0500
_audit_creation_method            fapswitch 2.2
_symmetry_space_group_name_H-M    P1
_symmetry_Int_Tables_number       1
_space_group_crystal_system       triclinic
_cell_length_a                    19.505338
_cell_length_b                    11.402547
_cell_length_c                    18.674681
_cell_angle_alpha                 90.327715
_cell_angle_beta                  90.948421
_cell_angle_gamma                 89.628964
_cell_volume                      4152.72423796

loop_
_atom_site_label
_atom_site_type_symbol
_atom_type_description
_atom_site_fract_x
_atom_site_fract_y
_atom_site_fract_z
_atom_type_partial_charge
C1    C     C_R   0.272653 0.043084 0.854550 0.537516
C2    C     C_3   0.685244 0.540542 0.953966 -0.260344
C3    C     C_R   0.226712 0.542682 0.354503 0.544941
C4    C     C_R   0.469040 0.822456 0.645995 0.542789
C5    C     C_R   0.532725 0.823114 0.355118 0.541186
C6    C     C_R   0.969040 0.322456 0.645995 0.542788
C7    C     C_R   0.032726 0.323114 0.355118 0.541187
C8    C     C_R   0.259766 0.637634 0.644892 0.556400
C9    C     C_R   0.739201 0.641406 0.356481 0.549376
C10   C     C_R   0.759766 0.137634 0.644892 0.556399
C11   C     C_R   0.239201 0.141406 0.356481 0.549376
C12   C     C_3   0.474317 0.920874 0.025943 -0.104567
C13   C     C_3   0.806290 0.016572 0.041675 -0.251535
C14   C     C_3   0.531712 0.913554 0.971106 -0.114878
C15   C     C_3   0.974317 0.420875 0.025943 -0.104569
C16   C     C_3   0.031712 0.413553 0.971107 -0.114871
C17   C     C_3   0.434190 0.825913 0.983338 -0.081497
C18   C     C_3   0.566426 0.812551 0.014698 -0.123117
C19   C     C_3   0.934190 0.325913 0.983338 -0.081501
C20   C     C_3   0.066426 0.312551 0.014699 -0.123107
C21   C     C_3   0.492148 0.820880 0.929746 0.070137
C22   C     C_3   0.508507 0.822187 0.068952 0.084613
C23   C     C_3   0.992147 0.320879 0.929746 0.070141
C24   C     C_3   0.185244 0.040543 0.953966 -0.260344
C25   C     C_3   0.008507 0.322187 0.068953 0.084612
C26   C     C_2   0.683623 0.957546 0.871220 0.551095
C27   C     C_2   0.307188 0.920100 0.109198 0.517162
C28   C     C_2   0.183624 0.457540 0.871221 0.551095
C29   C     C_2   0.807188 0.420102 0.109198 0.517162
C30   C     C_3   0.317058 0.538632 0.961279 -0.241200
C31   C     C_3   0.679573 0.551281 0.036010 -0.237300
C32   C     C_3   0.817058 0.038634 0.961279 -0.241197
C33   C     C_3   0.179573 0.051281 0.036010 -0.237302
C34   C     C_3   0.178944 0.501698 0.006722 -0.267782
C35   C     C_3   0.811743 0.503815 0.977508 -0.226989
C36   C     C_3   0.678944 0.001699 0.006722 -0.267786
C37   C     C_R   0.714340 0.010765 0.137064 0.536250
C38   C     C_3   0.311743 0.003813 0.977508 -0.226989
C39   C     C_3   0.223681 0.681672 0.057718 -0.221327
C40   C     C_3   0.766588 0.704239 0.947627 -0.256144
C41   C     C_3   0.723682 0.181673 0.057719 -0.221326
C42   C     C_3   0.266590 0.204238 0.947628 -0.256147
C43   C     C_3   0.231418 0.549027 0.062696 0.023498
C44   C     C_3   0.758489 0.573447 0.931135 0.036251
C45   C     C_3   0.731419 0.049028 0.062696 0.023499
C46   C     C_3   0.258490 0.073446 0.931135 0.036251
C47   C     C_3   0.257467 0.617728 0.932027 0.047017
C48   C     C_R   0.772652 0.543084 0.854550 0.537515
C49   C     C_3   0.745825 0.607267 0.069810 0.050852
C50   C     C_3   0.757468 0.117730 0.932028 0.047018
C51   C     C_3   0.245825 0.107267 0.069811 0.050851
C52   C     C_3   0.189077 0.550260 0.931055 -0.030764
C53   C     C_3   0.806881 0.525453 0.059776 -0.044719
C54   C     C_3   0.689077 0.050264 0.931055 -0.030766
C55   C     C_3   0.306881 0.025452 0.059776 -0.044718
C56   C     C_3   0.249638 0.720482 0.985602 -0.298256
C57   C     C_3   0.766073 0.719906 0.029251 -0.261419
C58   C     C_3   0.749639 0.220484 0.985603 -0.298257
C59   C     C_R   0.214339 0.510765 0.137064 0.536250
C60   C     C_3   0.266073 0.219905 0.029252 -0.261418
C61   C     C_3   0.507875 0.701628 0.461611 -0.226441
C62   C     C_3   0.505673 0.701419 0.541775 -0.235975
C63   C     C_3   0.007874 0.201628 0.461611 -0.226440
C64   C     C_3   0.005673 0.201419 0.541775 -0.235975
C65   C     C_R   0.470641 0.820289 0.853823 0.579358
C66   C     C_R   0.530254 0.820476 0.145250 0.567681
C67   C     C_R   0.970641 0.320289 0.853823 0.579356
C68   C     C_R   0.030254 0.320476 0.145250 0.567682
C69   C     C_3   0.563025 0.908755 0.475287 -0.218600
C70   C     C_3   0.525477 0.720125 0.972022 -0.127487
C71   C     C_3   0.431476 0.882157 0.525196 -0.229210
C72   C     C_3   0.063026 0.408755 0.475287 -0.218600
C73   C     C_3   0.931476 0.382157 0.525196 -0.229210
C74   C     C_3   0.442198 0.882919 0.443303 -0.259733
C75   C     C_3   0.554014 0.900359 0.557200 -0.251436
C76   C     C_3   0.942199 0.382920 0.443303 -0.259734
C77   C     C_3   0.054014 0.400359 0.557200 -0.251436
C78   C     C_3   0.512317 0.828931 0.431542 0.064809
C79   C     C_3   0.490808 0.827142 0.569924 0.059190
C80   C     C_3   0.012317 0.328931 0.431543 0.064810
C81   C     C_3   0.468554 0.727537 0.027305 -0.090974
C82   C     C_3   0.990808 0.327142 0.569924 0.059190
C83   C     C_3   0.176922 0.640588 0.460587 -0.228017
C84   C     C_3   0.815460 0.660677 0.544083 -0.231994
C85   C     C_3   0.676922 0.140587 0.460587 -0.228017
C86   C     C_3   0.315460 0.160676 0.544083 -0.231994
C87   C     C_3   0.178819 0.644951 0.540699 -0.236189
C88   C     C_3   0.813872 0.665755 0.463999 -0.229925
C89   C     C_3   0.678819 0.144951 0.540699 -0.236189
C90   C     C_3   0.313872 0.165755 0.463999 -0.229926
C91   C     C_3   0.255632 0.455243 0.472672 -0.215522
C92   C     C_3   0.025476 0.220125 0.972022 -0.127481
C93   C     C_3   0.760143 0.460866 0.526745 -0.225226
C94   C     C_3   0.755633 0.955243 0.472672 -0.215523
C95   C     C_3   0.260143 0.960865 0.526745 -0.225225
C96   C     C_3   0.301260 0.648760 0.444202 -0.263864
C97   C     C_3   0.690339 0.634172 0.556340 -0.257758
C98   C     C_3   0.801260 0.148760 0.444202 -0.263864
C99   C     C_3   0.190339 0.134172 0.556340 -0.257758
C100  C     C_3   0.239618 0.570991 0.430752 0.066440
C101  C     C_3   0.758989 0.576102 0.570771 0.063152
C102  C     C_3   0.739619 0.070991 0.430752 0.066440
C103  C     C_3   0.968554 0.227537 0.027305 -0.090978
C104  C     C_3   0.258989 0.076102 0.570771 0.063151
C105  C     C_3   0.250202 0.603057 0.568941 0.059653
C106  C     C_3   0.747679 0.608280 0.432632 0.063494
C107  C     C_3   0.750202 0.103057 0.568941 0.059653
C108  C     C_3   0.247679 0.108280 0.432631 0.063494
C109  C     C_3   0.256131 0.472398 0.554631 -0.256254
C110  C     C_3   0.756104 0.477371 0.444749 -0.261620
C111  C     C_3   0.756131 0.972398 0.554631 -0.256254
C112  C     C_3   0.256104 0.977371 0.444749 -0.261619
C113  C     C_R   0.269733 0.667683 0.860430 0.568895
C114  C     C_3   0.306290 0.516571 0.041675 -0.251536
C115  C     C_R   0.737495 0.642709 0.145623 0.599489
C116  C     C_R   0.769733 0.167685 0.860430 0.568888
C117  C     C_R   0.237495 0.142708 0.145623 0.599491
C118  C     C_3   0.307035 0.663877 0.526256 -0.227338
C119  C     C_3   0.681737 0.644141 0.474288 -0.216201
C120  C     C_3   0.807035 0.163877 0.526256 -0.227338
C121  C     C_3   0.181737 0.144141 0.474288 -0.216201
C122  C     C_R   0.272367 0.045008 0.646708 0.534246
C123  C     C_R   0.726712 0.042682 0.354503 0.544941
C124  C     C_R   0.772367 0.545008 0.646708 0.534246
Cr1   Cr    Cr6+3 0.229620 0.836040 0.749110 1.001619
Cr2   Cr    Cr6+3 0.613980 0.676590 0.250790 1.016851
Cr3   Cr    Cr6+3 0.886020 0.176590 0.749210 1.017047
Cr4   Cr    Cr6+3 0.113980 0.176590 0.250790 1.016851
Cr5   Cr    Cr6+3 0.770380 0.836040 0.250890 1.000318
Cr6   Cr    Cr6+3 0.729620 0.336040 0.749110 1.001620
Cr7   Cr    Cr6+3 0.270380 0.336040 0.250890 1.000318
Cr8   Cr    Cr6+3 0.387630 0.990680 0.750730 1.011696
Cr9   Cr    Cr6+3 0.612370 0.990680 0.249270 1.005967
Cr10  Cr    Cr6+3 0.887630 0.490680 0.750730 1.011691
Cr11  Cr    Cr6+3 0.112370 0.490680 0.249270 1.005967
Cr12  Cr    Cr6+3 0.386020 0.676590 0.749210 1.017047
H1    H     H_    0.385815 0.817305 0.954951 0.082334
H2    H     H_    0.723776 0.754352 0.922921 0.163867
H3    H     H_    0.143141 0.078101 0.458648 0.123076
H4    H     H_    0.308698 0.431038 0.458534 0.121516
H5    H     H_    0.718749 0.401855 0.543680 0.128310
H6    H     H_    0.808699 0.931039 0.458534 0.121516
H7    H     H_    0.218748 0.901855 0.543680 0.128309
H8    H     H_    0.305105 0.439594 0.578523 0.117727
H9    H     H_    0.712062 0.428052 0.421361 0.114245
H10   H     H_    0.805105 0.939594 0.578523 0.117727
H11   H     H_    0.212061 0.928052 0.421361 0.114245
H12   H     H_    0.320587 0.426674 0.055343 0.125233
H13   H     H_    0.754090 0.219234 0.101935 0.197528
H14   H     H_    0.669953 0.451850 0.936225 0.131342
H15   H     H_    0.820588 0.926675 0.055343 0.125233
H16   H     H_    0.169952 0.951851 0.936225 0.131341
H17   H     H_    0.342053 0.571793 0.073826 0.148082
H18   H     H_    0.648567 0.600714 0.926936 0.128684
H19   H     H_    0.842053 0.071793 0.073827 0.148080
H20   H     H_    0.148567 0.100716 0.926937 0.128690
H21   H     H_    0.367348 0.581826 0.953961 0.121826
H22   H     H_    0.633155 0.602336 0.049356 0.134647
H23   H     H_    0.867348 0.081828 0.953962 0.121824
H24   H     H_    0.223778 0.254352 0.922920 0.163871
H25   H     H_    0.133155 0.102335 0.049356 0.134647
H26   H     H_    0.319310 0.453561 0.932514 0.177338
H27   H     H_    0.671691 0.462521 0.058572 0.162855
H28   H     H_    0.819311 0.953564 0.932514 0.177347
H29   H     H_    0.171692 0.962521 0.058571 0.162852
H30   H     H_    0.683542 0.910154 0.999191 0.111156
H31   H     H_    0.300163 0.915495 0.964055 0.099509
H32   H     H_    0.183541 0.410153 0.999193 0.111160
H33   H     H_    0.800163 0.415497 0.964055 0.099509
H34   H     H_    0.729601 0.862788 0.793557 0.334351
H35   H     H_    0.300895 0.750499 0.998819 0.147486
H36   H     H_    0.267007 0.843133 0.196508 0.336730
H37   H     H_    0.229601 0.362790 0.793554 0.334351
H38   H     H_    0.767006 0.343135 0.196507 0.336730
H39   H     H_    0.733950 0.789557 0.049057 0.105646
H40   H     H_    0.800895 0.250501 0.998820 0.147485
H41   H     H_    0.233951 0.289556 0.049057 0.105646
H42   H     H_    0.215468 0.789297 0.964039 0.116332
H43   H     H_    0.819102 0.744923 0.045186 0.124147
H44   H     H_    0.715469 0.289298 0.964040 0.116331
H45   H     H_    0.617519 0.791613 0.036398 0.088921
H46   H     H_    0.319103 0.244922 0.045186 0.124148
H47   H     H_    0.627650 0.025338 0.026794 0.114863
H48   H     H_    0.364275 0.025439 0.959987 0.130533
H49   H     H_    0.127650 0.525338 0.026794 0.114863
H50   H     H_    0.864275 0.525442 0.959987 0.130533
H51   H     H_    0.146512 0.614127 0.921015 0.117064
H52   H     H_    0.853990 0.572944 0.076970 0.099516
H53   H     H_    0.646513 0.114132 0.921017 0.117069
H54   H     H_    0.353990 0.072943 0.076970 0.099515
H55   H     H_    0.548683 0.643419 0.444725 0.137230
H56   H     H_    0.885814 0.317306 0.954950 0.082333
H57   H     H_    0.467373 0.635253 0.556832 0.135219
H58   H     H_    0.048682 0.143416 0.444724 0.137229
H59   H     H_    0.967373 0.135253 0.556833 0.135219
H60   H     H_    0.461090 0.658395 0.439613 0.115883
H61   H     H_    0.554532 0.669966 0.564999 0.119398
H62   H     H_    0.961088 0.158397 0.439613 0.115882
H63   H     H_    0.054532 0.169966 0.564999 0.119398
H64   H     H_    0.616180 0.896393 0.460113 0.108989
H65   H     H_    0.391008 0.823181 0.534858 0.110226
H66   H     H_    0.116180 0.396391 0.460113 0.108988
H67   H     H_    0.117518 0.291611 0.036398 0.088922
H68   H     H_    0.891008 0.323182 0.534858 0.110225
H69   H     H_    0.599834 0.860446 0.583363 0.107404
H70   H     H_    0.402037 0.831518 0.414624 0.108294
H71   H     H_    0.099834 0.360446 0.583364 0.107403
H72   H     H_    0.902037 0.331520 0.414624 0.108294
H73   H     H_    0.456222 0.003919 0.050056 0.114189
H74   H     H_    0.549699 0.993317 0.944079 0.143048
H75   H     H_    0.956222 0.503919 0.050056 0.114191
H76   H     H_    0.049699 0.493316 0.944078 0.143044
H77   H     H_    0.439447 0.973719 0.422148 0.114695
H78   H     H_    0.169542 0.711508 0.063895 0.146698
H79   H     H_    0.545921 0.988828 0.580960 0.120921
H80   H     H_    0.939449 0.473720 0.422148 0.114696
H81   H     H_    0.045921 0.488828 0.580960 0.120920
H82   H     H_    0.420339 0.971776 0.544385 0.129879
H83   H     H_    0.548727 0.999543 0.461125 0.119646
H84   H     H_    0.920339 0.471776 0.544385 0.129879
H85   H     H_    0.048728 0.499543 0.461125 0.119646
H86   H     H_    0.127447 0.607064 0.442912 0.138462
H87   H     H_    0.868446 0.635929 0.560129 0.138231
H88   H     H_    0.627447 0.107062 0.442913 0.138462
H89   H     H_    0.815365 0.738311 0.926059 0.149266
H90   H     H_    0.368446 0.135928 0.560128 0.138231
H91   H     H_    0.177101 0.731614 0.439322 0.115440
H92   H     H_    0.807128 0.748664 0.567408 0.117595
H93   H     H_    0.677100 0.231613 0.439322 0.115440
H94   H     H_    0.307128 0.248664 0.567408 0.117595
H95   H     H_    0.165275 0.736017 0.556202 0.136430
H96   H     H_    0.820743 0.756134 0.447912 0.135656
H97   H     H_    0.665276 0.236018 0.556201 0.136431
H98   H     H_    0.320742 0.256134 0.447912 0.135656
H99   H     H_    0.138547 0.589274 0.563045 0.119566
H100  H     H_    0.669543 0.211509 0.063896 0.146701
H101  H     H_    0.859760 0.619949 0.442647 0.115781
H102  H     H_    0.638547 0.089274 0.563045 0.119566
H103  H     H_    0.359760 0.119949 0.442647 0.115781
H104  H     H_    0.723073 0.882427 0.455668 0.110407
H105  H     H_    0.309040 0.926400 0.540566 0.110668
H106  H     H_    0.223073 0.382427 0.455669 0.110406
H107  H     H_    0.809041 0.426400 0.540566 0.110668
H108  H     H_    0.713313 0.924523 0.579234 0.106466
H109  H     H_    0.302951 0.943817 0.418609 0.109618
H110  H     H_    0.213312 0.424523 0.579234 0.106465
H111  H     H_    0.315368 0.238308 0.926060 0.149260
H112  H     H_    0.802951 0.443817 0.418609 0.109618
H113  H     H_    0.348519 0.607800 0.422700 0.112724
H114  H     H_    0.649778 0.577928 0.578785 0.116795
H115  H     H_    0.848519 0.107801 0.422700 0.112724
H116  H     H_    0.149778 0.077928 0.578785 0.116795
H117  H     H_    0.294402 0.734629 0.417214 0.107298
H118  H     H_    0.687748 0.721602 0.582455 0.104399
H119  H     H_    0.794402 0.234630 0.417214 0.107298
H120  H     H_    0.187748 0.221602 0.582455 0.104399
H121  H     H_    0.542221 0.636391 0.947749 0.114268
H122  H     H_    0.254088 0.719235 0.101934 0.197528
H123  H     H_    0.443576 0.652033 0.052651 0.122272
H124  H     H_    0.042221 0.136390 0.947750 0.114268
H125  H     H_    0.943575 0.152034 0.052652 0.122272
H126  H     H_    0.297839 0.753583 0.538559 0.110098
H127  H     H_    0.661826 0.729794 0.458513 0.110864
H128  H     H_    0.797839 0.253584 0.538559 0.110098
H129  H     H_    0.161826 0.229793 0.458512 0.110864
H130  H     H_    0.358086 0.634186 0.545185 0.130333
H131  H     H_    0.643142 0.578101 0.458648 0.123076
H132  H     H_    0.858086 0.134186 0.545185 0.130333
O1    O     O_R   0.214130 0.708570 0.829890 -0.523355
O2    O     O_R   0.542830 0.717300 0.331620 -0.532620
O3    O     O_R   0.957170 0.217300 0.668380 -0.534404
O4    O     O_R   0.042830 0.217300 0.331620 -0.532620
O5    O     O_R   0.320870 0.624890 0.673130 -0.505009
O6    O     O_R   0.679130 0.624890 0.326870 -0.506242
O7    O     O_R   0.820870 0.124890 0.673130 -0.505010
O8    O     O_R   0.179130 0.124890 0.326870 -0.506242
O9    O     O_3   0.334430 0.834430 0.749680 -0.296520
O10   O     O_3   0.665570 0.834430 0.250320 -0.299929
O11   O     O_3   0.834430 0.334430 0.749680 -0.296520
O12   O     O_R   0.785870 0.708570 0.170110 -0.541332
O13   O     O_3   0.165570 0.334430 0.250320 -0.299929
O14   O     O_R   0.236050 0.959150 0.825270 -0.521345
O15   O     O_R   0.763950 0.959150 0.174730 -0.508021
O16   O     O_R   0.736050 0.459150 0.825270 -0.521345
O17   O     O_R   0.263950 0.459150 0.174730 -0.508020
O18   O     O_R   0.332100 0.076650 0.832310 -0.522551
O19   O     O_R   0.667900 0.076650 0.167690 -0.521019
O20   O     O_R   0.832100 0.576650 0.832310 -0.522550
O21   O     O_R   0.167900 0.576650 0.167690 -0.521019
O22   O     O_R   0.446500 0.918620 0.826240 -0.498002
O23   O     O_R   0.714130 0.208570 0.829890 -0.523353
O24   O     O_R   0.553500 0.918620 0.173760 -0.513379
O25   O     O_R   0.946500 0.418620 0.826240 -0.498007
O26   O     O_R   0.053500 0.418620 0.173760 -0.513379
O27   O     O_R   0.457310 0.715830 0.831280 -0.534843
O28   O     O_R   0.542690 0.715830 0.168720 -0.524820
O29   O     O_R   0.957310 0.215830 0.831280 -0.534841
O30   O     O_R   0.042690 0.215830 0.168720 -0.524821
O31   O     O_R   0.321000 0.623520 0.824130 -0.466369
O32   O     O_R   0.679000 0.623520 0.175870 -0.480446
O33   O     O_R   0.821000 0.123520 0.824130 -0.466370
O34   O     O_R   0.285870 0.208570 0.170110 -0.541332
O35   O     O_R   0.179000 0.123520 0.175870 -0.480446
O36   O     O_R   0.213990 0.710040 0.667000 -0.527183
O37   O     O_R   0.786010 0.710040 0.333000 -0.530969
O38   O     O_R   0.713990 0.210040 0.667000 -0.527182
O39   O     O_R   0.286010 0.210040 0.333000 -0.530969
O40   O     O_R   0.235920 0.960520 0.674260 -0.513677
O41   O     O_R   0.764080 0.960520 0.325740 -0.509489
O42   O     O_R   0.735920 0.460520 0.674260 -0.513677
O43   O     O_R   0.264080 0.460520 0.325740 -0.509489
O44   O     O_R   0.331960 0.078120 0.669410 -0.533082
O45   O     O_R   0.446360 0.919990 0.675230 -0.506557
O46   O     O_R   0.668040 0.078120 0.330590 -0.530365
O47   O     O_R   0.831960 0.578120 0.669410 -0.533082
O48   O     O_R   0.168040 0.578120 0.330590 -0.530365
O49   O     O_2   0.628157 0.914194 0.856229 -0.556218
O50   O     O_R   0.740820 0.923781 0.831633 -0.698768
O51   O     O_2   0.356185 0.853232 0.110182 -0.568648
O52   O     O_R   0.255842 0.906325 0.160054 -0.711396
O53   O     O_2   0.128163 0.414170 0.856240 -0.556231
O54   O     O_R   0.240818 0.423789 0.831626 -0.698755
O55   O     O_2   0.856186 0.353237 0.110185 -0.568645
O56   O     O_R   0.553640 0.919990 0.324770 -0.510046
O57   O     O_R   0.755839 0.406323 0.160051 -0.711399
O58   O     O_R   0.946360 0.419990 0.675230 -0.506559
O59   O     O_R   0.053640 0.419990 0.324770 -0.510046
O60   O     O_R   0.457170 0.717300 0.668380 -0.534404

loop_
_geom_bond_atom_site_label_1
_geom_bond_atom_site_label_2
_ccdc_geom_bond_type
C8    O36   A    
C54   H53   S    
C35   C53   S    
Cr7   O34   S    
C83   C87   S    
C10   O7    A    
C48   O16   A    
C20   C92   S    
C27   O51   D    
Cr10  O11   S    
C14   C21   S    
Cr11  O26   S    
C98   H115  S    
C27   C55   S    
C1    C46   S    
C41   H13   S    
C10   O38   A    
C64   H59   S    
C94   C111  S    
C87   H99   S    
Cr5   O15   S    
Cr1   O36   S    
Cr5   O37   S    
C3    C100  S    
C38   C55   S    
C40   H2    S    
Cr10  O20   S    
C52   H51   S    
C91   C100  S    
C110  H9    S    
C93   C110  S    
C99   C121  S    
C28   O53   D    
C60   H46   S    
Cr9   O46   S    
C1    O18   A    
Cr2   O28   S    
C38   H31   S    
C81   H123  S    
C85   H93   S    
C13   H15   S    
C86   C90   S    
C121  H129  S    
Cr7   O17   S    
Cr6   O38   S    
C60   H41   S    
C98   C102  S    
Cr7   O43   S    
C17   C21   S    
C19   C23   S    
C55   H54   S    
Cr2   O10   S    
C9    O6    A    
C39   C56   S    
C66   O28   A    
C16   C20   S    
C123  O46   A    
C103  H125  S    
Cr11  O21   S    
C61   H60   S    
C95   H105  S    
C88   H96   S    
C83   C100  S    
C56   H35   S    
Cr4   O8    S    
C105  C118  S    
C30   H26   S    
C37   C45   S    
C102  C123  S    
C107  C120  S    
C29   O55   D    
C89   H102  S    
Cr2   O2    S    
C84   C88   S    
C20   H67   S    
Cr3   O7    S    
C84   H87   S    
C98   C120  S    
C47   C52   S    
C59   O21   A    
C24   C46   S    
Cr1   O40   S    
C13   C45   S    
C75   H69   S    
C77   H81   S    
C77   C82   S    
C5    O56   A    
C49   C53   S    
C75   H79   S    
C109  H8    S    
C51   C55   S    
C85   H88   S    
C91   H4    S    
C94   C102  S    
C61   H55   S    
C41   C45   S    
C17   H1    S    
C75   C79   S    
C44   C48   S    
C115  O12   A    
C2    H14   S    
C13   C32   S    
Cr12  O5    S    
C86   C104  S    
C8    C105  S    
C37   O19   A    
C71   C79   S    
C56   H42   S    
C59   O17   A    
C5    O2    A    
C71   H82   S    
Cr1   O9    S    
C7    O4    A    
C113  O1    A    
C41   C58   S    
C77   H71   S    
C15   C25   S    
C104  C122  S    
C12   C22   S    
C4    O60   A    
C49   C57   S    
C89   H97   S    
Cr6   O11   S    
C6    O58   A    
C57   H39   S    
C70   H121  S    
C2    C44   S    
Cr6   O23   S    
C17   C81   S    
C43   C59   S    
Cr2   O6    S    
C2    H18   S    
Cr3   O3    S    
C122  O40   A    
Cr4   O4    S    
C117  O35   A    
C26   C54   S    
C98   H119  S    
C63   C80   S    
C112  H109  S    
C101  C124  S    
C11   O39   A    
C94   H6    S    
C111  H10   S    
Cr5   O41   S    
Cr4   O35   S    
C18   H45   S    
C97   C119  S    
C124  O47   A    
C99   H120  S    
C39   H122  S    
H34   O50   S    
C87   C105  S    
C64   C82   S    
C63   H58   S    
Cr5   O10   S    
C36   H47   S    
Cr9   O56   S    
C16   C23   S    
C7    O59   A    
C64   H63   S    
Cr7   O13   S    
C72   H66   S    
Cr6   O42   S    
Cr7   O39   S    
C6    O3    A    
C18   C22   S    
C107  C111  S    
C42   H24   S    
C34   C43   S    
C76   C80   S    
C62   H61   S    
C4    O45   A    
C58   H44   S    
C112  H11   S    
C121  H3    S    
C90   C108  S    
C72   C80   S    
C35   H50   S    
C72   H85   S    
C96   C100  S    
C51   C117  S    
C61   C62   S    
C11   O8    A    
C38   C46   S    
C36   C54   S    
C63   C64   S    
C24   H20   S    
C40   C44   S    
C11   C108  S    
C23   C92   S    
C51   C60   S    
Cr3   O11   S    
Cr10  O47   S    
C85   C102  S    
C47   C56   S    
C65   O22   A    
C30   H21   S    
C28   O54   S    
C95   H7    S    
C120  H132  S    
C106  C119  S    
C108  C121  S    
C15   C19   S    
C50   C54   S    
C90   H103  S    
C96   H113  S    
C53   H52   S    
C95   C112  S    
C43   C114  S    
C106  C110  S    
C20   C25   S    
Cr5   O12   S    
C42   C46   S    
C105  C109  S    
C24   H16   S    
C12   C17   S    
C69   H64   S    
C124  O42   A    
C37   O15   A    
C8    O5    A    
Cr12  O31   S    
C32   H23   S    
C99   C104  S    
C113  O31   A    
C67   O29   A    
C25   C68   S    
C31   C49   S    
C34   H32   S    
C76   H72   S    
C33   H29   S    
C27   O52   S    
C86   H94   S    
C22   C81   S    
C93   H107  S    
C57   H43   S    
C85   C89   S    
H38   O57   S    
Cr9   O10   S    
C108  C112  S    
C73   H84   S    
C115  O32   A    
C50   C58   S    
Cr8   O45   S    
C13   H19   S    
C34   H49   S    
C30   C47   S    
Cr3   O29   S    
C76   H80   S    
C91   H106  S    
C89   C107  S    
C122  O44   A    
C123  O41   A    
C94   H104  S    
C74   H77   S    
C35   H33   S    
C73   C76   S    
Cr8   O22   S    
Cr12  O60   S    
C93   C101  S    
C73   C82   S    
C93   H5    S    
C30   C114  S    
C110  H112  S    
C47   C113  S    
C40   C57   S    
C21   C65   S    
C69   H83   S    
C3    O43   A    
C99   H116  S    
C12   H73   S    
C71   C74   S    
C97   H114  S    
C33   C51   S    
C34   C52   S    
C24   C33   S    
C63   H62   S    
C114  H12   S    
C48   O20   A    
C68   O30   A    
C116  O33   A    
C69   C75   S    
C29   O57   S    
C31   H22   S    
Cr11  O48   S    
C9    O37   A    
C74   C78   S    
C31   H27   S    
Cr10  O58   S    
C62   H57   S    
C5    C78   S    
C7    C80   S    
C18   C70   S    
C111  H108  S    
C6    C82   S    
C14   C18   S    
C33   H25   S    
Cr11  O13   S    
C38   H48   S    
C83   H91   S    
Cr8   O9    S    
C96   C118  S    
C96   H117  S    
C1    O14   A    
Cr2   O32   S    
C23   C67   S    
C15   C16   S    
C32   H28   S    
C40   H89   S    
C90   H98   S    
H37   O54   S    
C70   C81   S    
C65   O27   A    
C22   C66   S    
C15   H75   S    
C92   C103  S    
C118  H130  S    
C83   H86   S    
C19   C103  S    
Cr8   O18   S    
Cr9   O19   S    
C68   O26   A    
Cr6   O16   S    
C114  H17   S    
C19   H56   S    
C66   O24   A    
H36   O52   S    
C84   C101  S    
C69   C78   S    
Cr4   O13   S    
C92   H124  S    
Cr11  O59   S    
C73   H68   S    
C119  H127  S    
C42   H111  S    
C14   H74   S    
Cr9   O24   S    
C62   C79   S    
C16   H76   S    
C4    C79   S    
C42   C60   S    
C25   C103  S    
C39   C43   S    
C120  H128  S    
C9    C106  S    
Cr1   O1    S    
C2    C31   S    
C117  O34   A    
C72   C77   S    
Cr12  O27   S    
C88   C106  S    
C118  H126  S    
C61   C78   S    
C119  H131  S    
C67   O25   A    
C36   H30   S    
C36   C45   S    
Cr8   O44   S    
C35   C44   S    
C32   C50   S    
C26   O49   D    
C12   C14   S    
C109  H110  S    
C86   H90   S    
C84   H92   S    
C10   C107  S    
C95   C104  S    
C74   H70   S    
C71   H65   S    
C39   H78   S    
C49   C115  S    
C58   H40   S    
Cr3   O33   S    
Cr4   O30   S    
C41   H100  S    
C116  O23   A    
C21   C70   S    
C3    O48   A    
C91   C109  S    
Cr12  O9    S    
Cr10  O25   S    
C28   C52   S    
C29   C53   S    
C87   H95   S    
C88   H101  S    
C50   C116  S    
C26   O50   S    
Cr1   O14   S    
C97   C101  S    
C97   H118  S    
