data_str_m9_o16_o19_f0_sra.sym.78
_audit_creation_date              2012-12-11T15:09:45-0500
_audit_creation_method            fapswitch 2.2
_symmetry_space_group_name_H-M    P1
_symmetry_Int_Tables_number       1
_space_group_crystal_system       triclinic
_cell_length_a                    21.020312
_cell_length_b                    7.1288
_cell_length_c                    13.996143
_cell_angle_alpha                 90.006675
_cell_angle_beta                  98.395504
_cell_angle_gamma                 89.995083
_cell_volume                      2074.84113667

loop_
_atom_site_label
_atom_site_type_symbol
_atom_type_description
_atom_site_fract_x
_atom_site_fract_y
_atom_site_fract_z
_atom_type_partial_charge
O1    O     O_R   0.447130 0.507140 0.597350 -0.546020
O2    O     O_R   0.552870 0.007140 0.402650 -0.546228
O3    O     O_R   0.578910 0.181280 0.586990 -0.540442
O4    O     O_R   0.421090 0.681280 0.413010 -0.540350
C1    C     C_R   0.604490 0.344448 0.607399 0.749730
C2    C     C_R   0.395510 0.844449 0.392600 0.749862
O5    O     O_R   0.449230 0.177860 0.608640 -0.534922
O6    O     O_R   0.550770 0.677860 0.391360 -0.534706
O7    O     O_R   0.422260 0.000770 0.424450 -0.537771
O8    O     O_R   0.577740 0.500770 0.575550 -0.537731
C3    C     C_R   0.432456 0.346115 0.633967 0.754458
C4    C     C_R   0.567568 0.846080 0.366055 0.754415
O9    O     O_3   0.491310 0.336980 0.439550 -0.378877
O10   O     O_3   0.508690 0.836980 0.560450 -0.378866
V1    V     V_3+5 0.501610 0.064760 0.511210 1.473137
V2    V     V_3+5 0.498390 0.564760 0.488790 1.473544
C5    C     C_R   0.619945 0.827204 0.121831 -0.240753
C6    C     C_R   0.380089 0.329582 0.878233 -0.240713
C7    C     C_R   0.608915 0.852915 0.290694 -0.153352
C8    C     C_R   0.391087 0.353122 0.709286 -0.153190
C9    C     C_R   0.921331 0.830410 0.304552 0.214333
C10   C     C_R   0.078698 0.328723 0.695561 0.214322
C11   C     C_R   0.883535 0.804681 0.378924 0.307351
C12   C     C_R   0.116512 0.302337 0.621264 0.307387
C13   C     C_R   0.816898 0.801091 0.356346 -0.112469
C14   C     C_R   0.183153 0.299535 0.643832 -0.112448
C15   C     C_R   0.784991 0.841880 0.262600 -0.024150
C16   C     C_R   0.215023 0.341699 0.737434 -0.024157
C17   C     C_R   0.822596 0.859246 0.186087 -0.055696
C18   C     C_R   0.177405 0.359846 0.813894 -0.055682
C19   C     C_R   0.716415 0.853570 0.242155 0.079629
C20   C     C_R   0.283589 0.353939 0.757832 0.079572
C21   C     C_R   0.686784 0.843643 0.144779 0.006892
C22   C     C_R   0.313235 0.345425 0.855237 0.006889
C23   C     C_R   0.723740 0.853082 0.070150 -0.225173
C24   C     C_R   0.276274 0.355697 0.929835 -0.225195
C25   C     C_R   0.790745 0.870024 0.089009 0.332508
C26   C     C_R   0.209252 0.372044 0.910928 0.332481
C27   C     C_R   0.676294 0.879209 0.314667 0.220356
C28   C     C_R   0.323684 0.378775 0.685226 0.220421
C29   C     C_R   0.580938 0.823793 0.194661 0.316722
C30   C     C_R   0.419097 0.325415 0.805413 0.316542
C31   C     C_R   0.890974 0.857896 0.209204 -0.157193
C32   C     C_R   0.109028 0.357711 0.790801 -0.157171
C33   C     C_1   0.166602 0.857172 0.168301 -0.145396
C34   C     C_1   0.833398 0.357178 0.831699 -0.145305
C35   C     C_1   0.218998 0.854843 0.219401 0.017782
C36   C     C_1   0.781002 0.354850 0.780598 0.017804
C37   C     C_1   0.280741 0.853321 0.279439 0.020208
C38   C     C_1   0.719259 0.353324 0.720560 0.020147
C39   C     C_1   0.333099 0.850983 0.330653 -0.170375
C40   C     C_1   0.666901 0.350982 0.669346 -0.170357
O11   O     O_R   0.922300 0.202240 0.924350 -0.527327
O12   O     O_R   0.077700 0.702240 0.075650 -0.527215
O13   O     O_R   0.050780 0.535130 0.891350 -0.538879
O14   O     O_R   0.949220 0.035130 0.108650 -0.539071
C41   C     C_R   0.067516 0.367972 0.865811 0.895945
C42   C     C_R   0.932487 0.868003 0.134195 0.896031
O15   O     O_R   0.921100 0.531560 0.912990 -0.535528
O16   O     O_R   0.078900 0.031560 0.087010 -0.535633
O17   O     O_R   0.947120 0.708470 0.097370 -0.540792
O18   O     O_R   0.052880 0.208470 0.902630 -0.540974
C43   C     C_R   0.895875 0.363585 0.893447 0.732593
C44   C     C_R   0.104125 0.863583 0.106554 0.732661
O19   O     O_3   0.008710 0.375800 0.060400 -0.379501
O20   O     O_3   0.991290 0.875800 0.939600 -0.379465
V3    V     V_3+5 0.998380 0.648080 0.988790 1.539918
V4    V     V_3+5 0.001620 0.148080 0.011210 1.539717
O21   O     O_3   0.515158 0.798897 0.173592 -0.650083
H1    H     H_    0.503298 0.780287 0.103012 0.289057
O22   O     O_3   0.484904 0.301219 0.826562 -0.650150
H2    H     H_    0.496792 0.283686 0.897210 0.289099
H3    H     H_    0.699981 0.851518 0.995949 0.121984
H4    H     H_    0.300040 0.355237 0.004037 0.121983
H5    H     H_    0.598091 0.814499 0.046983 0.128937
H6    H     H_    0.401958 0.317990 0.953123 0.128889
O23   O     O_3   0.703342 0.944495 0.404760 -0.651879
H7    H     H_    0.670855 0.957913 0.448573 0.286653
O24   O     O_3   0.296581 0.442845 0.594920 -0.651782
H8    H     H_    0.329040 0.455542 0.551013 0.286446
O25   O     O_3   0.987743 0.819805 0.321219 -0.652022
H9    H     H_    0.001024 0.736597 0.377204 0.305896
O26   O     O_3   0.012305 0.317295 0.678953 -0.652023
H10   H     H_    0.999167 0.232689 0.623484 0.305481
H11   H     H_    0.791099 0.759295 0.414001 0.203333
H12   H     H_    0.208989 0.257170 0.586313 0.203344
O27   O     O_3   0.909575 0.781697 0.474571 -0.633405
H13   H     H_    0.951242 0.848682 0.486488 0.305532
O28   O     O_3   0.090489 0.277867 0.525708 -0.633394
H14   H     H_    0.048632 0.343835 0.513614 0.305825
O29   O     O_3   0.825227 0.891148 0.012745 -0.653601
H15   H     H_    0.795482 0.897392 0.950920 0.282600
O30   O     O_3   0.174756 0.393958 0.987126 -0.653594
H16   H     H_    0.204499 0.401221 0.048920 0.282589

loop_
_geom_bond_atom_site_label_1
_geom_bond_atom_site_label_2
_ccdc_geom_bond_type
O20   V4    S    
O27   H13   S    
O30   H16   S    
C15   C17   A    
O1    C3    A    
O2    C4    A    
C12   O28   S    
C2    O7    A    
O25   H9    S    
C41   O18   A    
C35   C37   S    
O23   H7    S    
C24   H4    S    
O5    C3    A    
C27   O23   S    
C23   C25   A    
C12   C14   A    
C6    C30   A    
C8    C28   A    
O5    V1    S    
C18   C26   A    
O11   V4    S    
C31   C42   S    
O15   V3    S    
C9    C31   A    
C10   C32   A    
O14   C42   A    
C37   C39   T    
C38   C40   T    
C19   C21   A    
C1    C40   S    
C2    C39   S    
O6    C4    A    
C42   O17   A    
C36   C38   S    
O20   V3    S    
O6    V2    S    
C11   O27   S    
C17   C31   A    
C18   C32   A    
C5    C21   A    
C33   C35   T    
C9    C11   A    
C34   C36   T    
C3    C8    S    
C25   O29   S    
C15   C19   A    
C16   C20   A    
O4    C2    A    
O29   H15   S    
O12   V3    S    
O19   V3    S    
O14   V4    S    
C20   C22   A    
O4    V2    S    
O17   V3    S    
O13   V3    S    
O26   H10   S    
C32   C41   S    
C14   H12   S    
O19   V4    S    
C13   H11   S    
C28   O24   S    
O1    V2    S    
O2    V1    S    
C6    C22   A    
C7    C27   A    
C9    O25   S    
O13   C41   A    
C10   C12   A    
O3    V1    S    
C29   O21   S    
C23   H3    S    
C6    H6    S    
C26   O30   S    
O15   C43   A    
O3    C1    A    
C8    C30   A    
C13   C15   A    
C33   C44   S    
C14   C16   A    
O18   V4    S    
C34   C43   S    
O16   C44   A    
C10   O26   S    
C16   C18   A    
O7    V1    S    
C1    O8    A    
O8    V2    S    
O11   C43   A    
O12   C44   A    
C4    C7    S    
C24   C26   A    
C30   O22   S    
C21   C23   A    
C19   C27   A    
C22   C24   A    
C20   C28   A    
O21   H1    S    
C5    C29   A    
O24   H8    S    
O22   H2    S    
C11   C13   A    
O16   V4    S    
O9    V2    S    
C17   C25   A    
C5    H5    S    
O10   V1    S    
O28   H14   S    
C7    C29   A    
