data_str_m9_o8_o16_f0_sra.sym.77
_audit_creation_date              2012-12-11T17:44:04-0500
_audit_creation_method            fapswitch 2.2
_symmetry_space_group_name_H-M    P1
_symmetry_Int_Tables_number       1
_space_group_crystal_system       triclinic
_cell_length_a                    20.272825
_cell_length_b                    22.669476
_cell_length_c                    6.941547
_cell_angle_alpha                 90.000311
_cell_angle_beta                  86.971234
_cell_angle_gamma                 90.0
_cell_volume                      3185.70051619

loop_
_atom_site_label
_atom_site_type_symbol
_atom_type_description
_atom_site_fract_x
_atom_site_fract_y
_atom_site_fract_z
_atom_type_partial_charge
O1    O     O_R   0.751270 0.447300 0.600030 -0.544573
O2    O     O_R   0.248730 0.947300 0.399970 -0.544570
O3    O     O_R   0.613530 0.440160 0.952150 -0.523292
O4    O     O_R   0.386470 0.940160 0.047850 -0.523294
O5    O     O_R   0.613050 0.552700 0.122560 -0.514864
O6    O     O_R   0.386950 0.052700 0.877440 -0.514881
C1    C     C_R   0.591414 0.425496 0.786679 0.756673
C2    C     C_R   0.408583 0.925494 0.213321 0.756562
O7    O     O_R   0.750780 0.440350 0.929820 -0.548108
O8    O     O_R   0.249220 0.940350 0.070180 -0.548107
O9    O     O_R   0.751280 0.552900 0.100070 -0.544834
O10   O     O_R   0.248720 0.052900 0.899930 -0.544830
C3    C     C_R   0.773931 0.426131 0.757519 0.681702
C4    C     C_R   0.226069 0.926131 0.242480 0.681711
O11   O     O_R   0.613040 0.447100 0.622520 -0.539345
O12   O     O_R   0.386960 0.947100 0.377480 -0.539343
O13   O     O_3   0.682160 0.536920 0.777780 -0.365656
O14   O     O_3   0.317840 0.036920 0.222220 -0.365666
V1    V     V_3+5 0.682160 0.493150 0.052630 1.461494
V2    V     V_3+5 0.317840 0.993150 0.947370 1.461478
O15   O     O_R   0.750790 0.559840 0.429870 -0.546205
O16   O     O_R   0.249210 0.059840 0.570130 -0.546205
C5    C     C_R   0.773739 0.574261 0.257557 0.681380
C6    C     C_R   0.226261 0.074261 0.742444 0.681386
O17   O     O_R   0.613540 0.559650 0.452200 -0.537113
O18   O     O_R   0.386460 0.059650 0.547800 -0.537119
C7    C     C_R   0.591623 0.574455 0.286683 0.718227
C8    C     C_R   0.408379 0.074454 0.713319 0.718235
V3    V     V_3+5 0.682160 0.506850 0.552630 1.443559
V4    V     V_3+5 0.317840 0.006850 0.447370 1.443528
O19   O     O_3   0.682150 0.463080 0.277610 -0.372583
O20   O     O_3   0.317850 0.963080 0.722390 -0.372575
C9    C     C_R   0.583746 0.864934 0.214926 -0.057759
C10   C     C_R   0.416247 0.364931 0.785295 -0.057675
H1    H     H_    0.674391 0.776205 0.209633 0.156328
H2    H     H_    0.325605 0.276197 0.790310 0.156394
C11   C     C_R   0.465214 0.884200 0.213993 -0.125499
C12   C     C_R   0.534782 0.384203 0.786015 -0.125533
C13   C     C_R   0.472610 0.596232 0.306078 -0.108590
C14   C     C_R   0.527392 0.096228 0.694111 -0.108614
C15   C     C_R   0.419098 0.634526 0.306640 -0.115189
C16   C     C_R   0.580903 0.134519 0.693690 -0.115168
C17   C     C_R   0.428775 0.695144 0.286242 -0.164796
C18   C     C_R   0.571225 0.195138 0.714044 -0.164815
C19   C     C_R   0.493111 0.719472 0.263921 0.093335
C20   C     C_R   0.506887 0.219471 0.736170 0.093337
C21   C     C_R   0.547868 0.679640 0.264601 0.062384
C22   C     C_R   0.452132 0.179641 0.735389 0.062413
C23   C     C_R   0.504791 0.781838 0.242640 0.080964
C24   C     C_R   0.495206 0.281839 0.757413 0.080986
C25   C     C_R   0.570970 0.803209 0.229530 0.050063
C26   C     C_R   0.429026 0.303208 0.770558 0.050014
C27   C     C_R   0.623415 0.762346 0.226981 -0.147782
C28   C     C_R   0.376582 0.262344 0.773005 -0.147900
C29   C     C_R   0.612143 0.702172 0.244163 -0.192060
C30   C     C_R   0.387857 0.202172 0.755737 -0.192062
C31   C     C_R   0.452883 0.823549 0.232362 -0.226517
C32   C     C_R   0.547113 0.323553 0.767634 -0.226528
C33   C     C_R   0.530685 0.905425 0.207323 -0.077387
C34   C     C_R   0.469308 0.405425 0.792792 -0.077390
C35   C     C_R   0.537097 0.617847 0.285615 -0.091559
C36   C     C_R   0.462904 0.117846 0.714407 -0.091632
H3    H     H_    0.401755 0.810443 0.237846 0.099094
H4    H     H_    0.598244 0.310455 0.762062 0.099081
H5    H     H_    0.463681 0.549305 0.321826 0.158422
H6    H     H_    0.536322 0.049300 0.678418 0.158550
H7    H     H_    0.384671 0.721637 0.290463 0.112963
H8    H     H_    0.615330 0.221626 0.709997 0.112964
H9    H     H_    0.369427 0.617046 0.323548 0.141321
H10   H     H_    0.630575 0.117034 0.676950 0.141343
H11   H     H_    0.654723 0.673275 0.241854 0.106324
H12   H     H_    0.345280 0.173274 0.757947 0.106325
C37   C     C_R   0.170871 0.882658 0.260642 -0.044059
C38   C     C_R   0.829130 0.382658 0.739355 -0.044056
C39   C     C_R   0.143332 0.858647 0.095863 -0.216915
C40   C     C_R   0.856659 0.358639 0.904134 -0.216921
C41   C     C_R   0.090827 0.818403 0.113486 -0.138851
C42   C     C_R   0.909165 0.318395 0.886512 -0.138851
C43   C     C_R   0.064463 0.801104 0.297444 0.430947
C44   C     C_R   0.935540 0.301107 0.702554 0.430949
C45   C     C_R   0.092155 0.824917 0.461023 -0.179272
C46   C     C_R   0.907858 0.324929 0.538975 -0.179272
C47   C     C_R   0.144550 0.865134 0.443473 -0.198284
C48   C     C_R   0.855462 0.365145 0.556524 -0.198279
C49   C     C_R   0.907961 0.682998 0.386521 -0.132890
C50   C     C_R   0.092047 0.183006 0.613481 -0.132890
C51   C     C_R   0.855818 0.642386 0.404156 -0.210336
C52   C     C_R   0.144192 0.142395 0.595847 -0.210353
C53   C     C_R   0.934110 0.700515 0.202555 0.430781
C54   C     C_R   0.065886 0.200512 0.797447 0.430787
N1    N     N_2   0.010845 0.760378 0.325656 -0.304967
N2    N     N_2   0.989160 0.260383 0.674344 -0.304966
N3    N     N_2   0.987628 0.741346 0.174337 -0.305331
N4    N     N_2   0.012367 0.241341 0.825664 -0.305331
C55   C     C_R   0.828456 0.618199 0.239383 -0.045971
C56   C     C_R   0.171543 0.118198 0.760619 -0.045973
H13   H     H_    0.837155 0.629784 0.547291 0.132910
H14   H     H_    0.162864 0.129802 0.452713 0.132915
H15   H     H_    0.927646 0.700377 0.516874 0.135885
H16   H     H_    0.072371 0.200393 0.483129 0.135887
H17   H     H_    0.072829 0.812288 0.603520 0.121820
H18   H     H_    0.927193 0.312309 0.396478 0.121823
H19   H     H_    0.164288 0.882589 0.573714 0.132544
H20   H     H_    0.835732 0.382609 0.426284 0.132544
C57   C     C_R   0.854431 0.636066 0.056547 -0.195440
C58   C     C_R   0.145556 0.136054 0.943456 -0.195436
C59   C     C_R   0.906463 0.676652 0.038982 -0.176206
C60   C     C_R   0.093522 0.176639 0.961021 -0.176212
H21   H     H_    0.834741 0.618556 0.926315 0.133435
H22   H     H_    0.165237 0.118535 0.073687 0.133434
H23   H     H_    0.071090 0.801078 0.983131 0.135578
H24   H     H_    0.928894 0.301063 0.016867 0.135578
H25   H     H_    0.925605 0.689466 0.896479 0.121843
H26   H     H_    0.074371 0.189444 0.103523 0.121842
H27   H     H_    0.162181 0.871059 0.952731 0.131752
H28   H     H_    0.837801 0.371042 0.047266 0.131754
C61   C     C_2   0.543522 0.970195 0.199289 0.769179
O21   O     O_2   0.515194 0.001228 0.085609 -0.561052
O22   O     O_R   0.587983 0.995602 0.322366 -0.654925
H29   H     H_    0.592516 0.039786 0.303217 0.297235
C62   C     C_2   0.456463 0.470195 0.800826 0.769040
O23   O     O_2   0.484862 0.501248 0.914293 -0.561050
O24   O     O_R   0.411908 0.495581 0.677987 -0.654873
H30   H     H_    0.407375 0.539764 0.697126 0.297251
C63   C     C_2   0.652586 0.887736 0.203146 0.806346
O25   O     O_2   0.689298 0.877730 0.333533 -0.542045
O26   O     O_R   0.674595 0.921847 0.044747 -0.644398
H31   H     H_    0.721988 0.935385 0.053859 0.310245
C64   C     C_2   0.347403 0.387724 0.797511 0.806362
O27   O     O_2   0.310616 0.377781 0.667261 -0.542028
O28   O     O_R   0.325480 0.421756 0.956190 -0.644414
H32   H     H_    0.278065 0.435275 0.947427 0.310256

loop_
_geom_bond_atom_site_label_1
_geom_bond_atom_site_label_2
_ccdc_geom_bond_type
C52   C56   A    
O11   V3    S    
H1    C27   S    
O13   V3    S    
O4    C2    A    
V1    O19   S    
C23   C31   A    
O24   H30   S    
C13   C15   A    
C45   H17   S    
C57   C59   A    
O9    V1    S    
C47   H19   S    
C15   H9    S    
C40   C42   A    
O3    C1    A    
C61   O22   S    
C58   H22   S    
C42   C44   A    
O12   V4    S    
C16   H10   S    
C14   C36   A    
O17   V3    S    
O10   C6    A    
C2    O12   A    
C19   C21   A    
C60   H26   S    
C41   H23   S    
O7    C3    A    
C59   H25   S    
C56   C58   A    
C7    C35   S    
C40   H28   S    
C9    C63   S    
O5    C7    A    
O7    V1    S    
O6    C8    A    
C10   C64   S    
C18   C20   A    
C30   H12   S    
C51   C55   A    
C24   C26   A    
O3    V1    S    
O14   V4    S    
C50   H16   S    
C43   N1    S    
C49   C51   A    
C9    C33   A    
C12   C32   A    
C10   C34   A    
C15   C17   A    
C53   C59   A    
C16   C18   A    
O1    V3    S    
C45   C47   A    
C26   C28   A    
C54   N4    S    
C20   C22   A    
C27   C29   A    
C32   H4    S    
C13   C35   A    
C28   C30   A    
C50   C52   A    
C24   C32   A    
C4    C37   S    
C44   C46   A    
C50   C54   A    
O8    V2    S    
C43   C45   A    
C49   C53   A    
C1    O11   A    
C23   C25   A    
O15   V3    S    
C25   C27   A    
C44   N2    S    
C49   H15   S    
N1    N3    D    
C17   C19   A    
C22   C36   A    
C19   C23   A    
O10   V2    S    
N2    N4    D    
C46   H18   S    
C41   C43   A    
C39   C41   A    
C62   O23   D    
C11   C33   A    
C38   C40   A    
C12   C34   A    
C17   H7    S    
C13   H5    S    
O18   V4    S    
C46   C48   A    
O15   C5    A    
O8    C4    A    
C63   O25   D    
C48   H20   S    
O16   C6    A    
C18   H8    S    
O1    C3    A    
C2    C11   S    
C37   C39   A    
O26   H31   S    
C21   C29   A    
C64   O27   D    
V2    O20   S    
C22   C30   A    
C57   H21   S    
O16   V4    S    
O18   C8    A    
C31   H3    S    
C38   C48   A    
C14   C16   A    
C21   C35   A    
C42   H24   S    
O22   H29   S    
C11   C31   A    
O5    V1    S    
C9    C25   A    
O6    V2    S    
C20   C24   A    
C10   C26   A    
O2    V4    S    
C6    C56   S    
C54   C60   A    
V3    O19   S    
C61   O21   D    
V4    O20   S    
C58   C60   A    
O9    C5    A    
O13   V1    S    
C1    C12   S    
C5    C55   S    
O14   V2    S    
C53   N3    S    
C34   C62   S    
O2    C4    A    
C29   H11   S    
C62   O24   S    
H2    C28   S    
O4    V2    S    
C39   H27   S    
C3    C38   S    
C33   C61   S    
C55   C57   A    
C63   O26   S    
C14   H6    S    
C64   O28   S    
C37   C47   A    
C52   H14   S    
O28   H32   S    
C51   H13   S    
O17   C7    A    
C8    C36   S    
