data_str_m9_o10_o29_f0_sra.sym.48
_audit_creation_date              2012-12-11T14:08:40-0500
_audit_creation_method            fapswitch 2.2
_symmetry_space_group_name_H-M    P1
_symmetry_Int_Tables_number       1
_space_group_crystal_system       triclinic
_cell_length_a                    28.219899
_cell_length_b                    7.186454
_cell_length_c                    17.192438
_cell_angle_alpha                 89.991503
_cell_angle_beta                  101.928347
_cell_angle_gamma                 89.96358
_cell_volume                      3411.35525991

loop_
_atom_site_label
_atom_site_type_symbol
_atom_type_description
_atom_site_fract_x
_atom_site_fract_y
_atom_site_fract_z
_atom_type_partial_charge
O1    O     O_R   0.000700 0.436510 0.857920 -0.539287
O2    O     O_R   0.999300 0.563490 0.142080 -0.539275
O3    O     O_R   0.999300 0.936510 0.642080 -0.539185
O4    O     O_R   0.000700 0.063490 0.357920 -0.539186
O5    O     O_R   0.930080 0.766380 0.721890 -0.540051
O6    O     O_R   0.069920 0.233620 0.278110 -0.540050
O7    O     O_R   0.069920 0.266380 0.778110 -0.539991
O8    O     O_R   0.930080 0.733620 0.221890 -0.539976
C1    C     C_R   0.910602 0.597585 0.707373 0.768678
C2    C     C_R   0.089398 0.402416 0.292620 0.768701
C3    C     C_R   0.089327 0.097449 0.792858 0.769281
C4    C     C_R   0.910671 0.902553 0.207152 0.769246
O9    O     O_R   0.996180 0.766230 0.862310 -0.540713
O10   O     O_R   0.003820 0.233770 0.137690 -0.540737
O11   O     O_R   0.003820 0.266230 0.637690 -0.541172
O12   O     O_R   0.996180 0.733770 0.362310 -0.541172
O13   O     O_R   0.065870 0.936460 0.783500 -0.510817
O14   O     O_R   0.934130 0.063540 0.216500 -0.510794
O15   O     O_R   0.934130 0.436460 0.716500 -0.510517
O16   O     O_R   0.065870 0.563540 0.283500 -0.510522
C5    C     C_R   0.998487 0.596451 0.894503 0.792846
C6    C     C_R   0.001513 0.403549 0.105497 0.792796
C7    C     C_R   0.001510 0.096463 0.605494 0.791412
C8    C     C_R   0.998489 0.903537 0.394506 0.791396
O17   O     O_3   0.022790 0.603020 0.723980 -0.376703
O18   O     O_3   0.977210 0.396980 0.276020 -0.376667
O19   O     O_3   0.977210 0.103020 0.776020 -0.376482
O20   O     O_3   0.022790 0.896980 0.223980 -0.376489
V1    V     V_3+5 0.995770 0.877900 0.754830 1.544549
V2    V     V_3+5 0.004230 0.122100 0.245170 1.544567
V3    V     V_3+5 0.004230 0.377900 0.745170 1.544071
V4    V     V_3+5 0.995770 0.622100 0.254830 1.544134
C9    C     C_2   0.001682 0.082723 0.519553 -0.291212
C10   C     C_2   0.998318 0.917277 0.480447 -0.291203
C11   C     C_2   0.998316 0.582723 0.980439 -0.290199
C12   C     C_2   0.001684 0.417277 0.019561 -0.290281
H1    H     H_    0.004420 0.211724 0.487850 0.150244
H2    H     H_    0.995580 0.788276 0.512150 0.150243
H3    H     H_    0.995578 0.711739 0.012125 0.150379
H4    H     H_    0.004423 0.288262 0.987875 0.150383
C13   C     C_R   0.682576 0.912954 0.023423 0.771568
C14   C     C_R   0.317406 0.087140 0.976708 0.771604
C15   C     C_R   0.317869 0.398362 0.474743 0.770170
C16   C     C_R   0.682139 0.601634 0.525161 0.770174
O21   O     O_2   0.711334 0.879965 0.971248 -0.419510
O22   O     O_2   0.288646 0.120325 0.028862 -0.419467
O23   O     O_2   0.288961 0.365329 0.526663 -0.419774
O24   O     O_2   0.711049 0.634657 0.473243 -0.419771
N1    N     N_R   0.702864 0.926951 0.102753 -0.554799
N2    N     N_R   0.297122 0.072982 0.897380 -0.554800
N3    N     N_R   0.297588 0.419195 0.395655 -0.553004
N4    N     N_R   0.702417 0.580820 0.604251 -0.552986
C17   C     C_R   0.674695 0.958243 0.157324 0.686307
C18   C     C_R   0.325295 0.041505 0.842831 0.686151
C19   C     C_R   0.326042 0.446097 0.341114 0.687328
C20   C     C_R   0.673961 0.553917 0.658789 0.687234
C21   C     C_R   0.777593 0.770398 0.172645 -0.095478
C22   C     C_R   0.222412 0.229450 0.827357 -0.095563
C23   C     C_R   0.222306 0.266290 0.325953 -0.095920
C24   C     C_R   0.777694 0.733762 0.673948 -0.095947
C25   C     C_R   0.828028 0.765786 0.197538 -0.189240
C26   C     C_R   0.171980 0.234079 0.802429 -0.189367
C27   C     C_R   0.171830 0.263494 0.301481 -0.188479
C28   C     C_R   0.828169 0.736547 0.698447 -0.188465
C29   C     C_R   0.833795 0.064319 0.133508 0.265587
C30   C     C_R   0.166178 0.935820 0.866653 0.265563
C31   C     C_R   0.166912 0.562975 0.365109 0.265668
C32   C     C_R   0.833092 0.437004 0.634872 0.265650
C33   C     C_R   0.783185 0.067811 0.109314 0.655687
C34   C     C_R   0.216785 0.932307 0.890884 0.655718
C35   C     C_R   0.217605 0.564459 0.389060 0.655881
C36   C     C_R   0.782401 0.435533 0.610893 0.655857
C37   C     C_R   0.754893 0.921268 0.128472 0.156324
C38   C     C_R   0.245094 0.078705 0.871645 0.156334
C39   C     C_R   0.245505 0.416556 0.369829 0.157827
C40   C     C_R   0.754499 0.583471 0.630086 0.157862
C41   C     C_R   0.602278 0.963063 0.051610 -0.144217
C42   C     C_R   0.397705 0.036826 0.948561 -0.144212
C43   C     C_R   0.398264 0.449252 0.447173 -0.143135
C44   C     C_R   0.601742 0.550739 0.552724 -0.143120
C45   C     C_R   0.632044 0.933325 0.996130 -0.170866
C46   C     C_R   0.367936 0.066734 0.004020 -0.170802
C47   C     C_R   0.368590 0.411581 0.502040 -0.170648
C48   C     C_R   0.631418 0.588404 0.497859 -0.170609
C49   C     C_R   0.610888 0.933430 0.914898 0.652794
C50   C     C_R   0.389086 0.066769 0.085253 0.652648
C51   C     C_R   0.390483 0.383123 0.582058 0.657118
C52   C     C_R   0.609527 0.616844 0.417838 0.657032
C53   C     C_R   0.624132 0.977832 0.132748 -0.112590
C54   C     C_R   0.375856 0.021904 0.867424 -0.112593
C55   C     C_R   0.376737 0.460347 0.365800 -0.113336
C56   C     C_R   0.623268 0.539655 0.634098 -0.113371
C57   C     C_R   0.857011 0.912353 0.179076 -0.221302
C58   C     C_R   0.142982 0.087651 0.820968 -0.221220
C59   C     C_R   0.143200 0.411318 0.320022 -0.220978
C60   C     C_R   0.856802 0.588685 0.679948 -0.220995
C61   C     C_R   0.478193 0.981331 0.917443 -0.029451
C62   C     C_R   0.521790 0.018471 0.082759 -0.029379
C63   C     C_R   0.521189 0.493615 0.583154 -0.034008
C64   C     C_R   0.478817 0.506370 0.416739 -0.033917
C65   C     C_R   0.470315 0.029610 0.056756 0.000741
C66   C     C_R   0.529665 0.970315 0.943435 0.000664
C67   C     C_R   0.529464 0.540718 0.444035 0.000621
C68   C     C_R   0.470543 0.459259 0.555859 0.000555
C69   C     C_R   0.449040 0.017847 0.974257 0.007135
C70   C     C_R   0.550943 0.982025 0.025932 0.007116
C71   C     C_R   0.550614 0.526748 0.526481 0.004512
C72   C     C_R   0.449393 0.473236 0.473413 0.004513
C73   C     C_R   0.454014 0.950058 0.837111 0.606563
C74   C     C_R   0.545976 0.049543 0.163106 0.606619
C75   C     C_R   0.543758 0.504165 0.665265 0.613130
C76   C     C_R   0.456246 0.495832 0.334629 0.613144
C77   C     C_R   0.404378 0.977125 0.812890 -0.113011
C78   C     C_R   0.595614 0.022438 0.187307 -0.112931
C79   C     C_R   0.593770 0.520125 0.689423 -0.125201
C80   C     C_R   0.406233 0.479879 0.310474 -0.125219
O25   O     O_2   0.304379 0.025752 0.765091 -0.466602
O26   O     O_2   0.695617 0.973825 0.235068 -0.466503
O27   O     O_2   0.694658 0.538560 0.736631 -0.469119
O28   O     O_2   0.305343 0.461467 0.263273 -0.469035
C81   C     C_R   0.561228 0.957315 0.889479 -0.150583
C82   C     C_R   0.438743 0.042813 0.110694 -0.150715
C83   C     C_R   0.440345 0.401365 0.607584 -0.151843
C84   C     C_R   0.559664 0.598597 0.392309 -0.151809
H5    H     H_    0.155672 0.352312 0.767873 0.189677
H6    H     H_    0.844348 0.647445 0.232003 0.189838
H7    H     H_    0.844803 0.854757 0.732568 0.190804
H8    H     H_    0.155191 0.145306 0.267348 0.190779
H9    H     H_    0.243912 0.343495 0.812280 0.196517
H10   H     H_    0.756106 0.656238 0.187657 0.196601
H11   H     H_    0.756556 0.849171 0.688903 0.198073
H12   H     H_    0.243442 0.150907 0.310969 0.198091
H13   H     H_    0.387991 0.954479 0.750839 0.221208
H14   H     H_    0.612004 0.044925 0.249368 0.221257
H15   H     H_    0.609213 0.523079 0.752602 0.218965
H16   H     H_    0.390788 0.476934 0.247295 0.218964
H17   H     H_    0.549281 0.974004 0.826434 0.233784
H18   H     H_    0.450672 0.026262 0.173744 0.233913
H19   H     H_    0.454221 0.360581 0.668119 0.229629
H20   H     H_    0.545791 0.639365 0.331772 0.229624
Cl1   Cl    Cl    0.866011 0.249941 0.101341 -0.564492
Cl2   Cl    Cl    0.133932 0.750423 0.898921 -0.564431
Cl3   Cl    Cl    0.135199 0.750612 0.396931 -0.564190
Cl4   Cl    Cl    0.864808 0.249308 0.603098 -0.564235
F1    F     F_    0.761208 0.214679 0.066746 -0.608152
F2    F     F_    0.238742 0.785556 0.933561 -0.608037
F3    F     F_    0.240022 0.710498 0.431545 -0.607656
F4    F     F_    0.759988 0.289470 0.568421 -0.607686
F5    F     F_    0.638148 0.917863 0.858677 -0.606093
F6    F     F_    0.361821 0.082537 0.141458 -0.606160
F7    F     F_    0.364170 0.331982 0.636382 -0.605045
F8    F     F_    0.635841 0.667973 0.363516 -0.605124
F9    F     F_    0.476175 0.876843 0.781363 -0.650540
F10   F     F_    0.523828 0.122536 0.218910 -0.650777
F11   F     F_    0.518486 0.515230 0.724066 -0.649347
F12   F     F_    0.481515 0.484776 0.275825 -0.649516

loop_
_geom_bond_atom_site_label_1
_geom_bond_atom_site_label_2
_ccdc_geom_bond_type
O17   V3    S    
C35   F3    S    
N1    C17   A    
C22   C26   A    
C62   C74   A    
C83   H19   S    
O19   V1    S    
C33   F1    S    
O3    C7    A    
C11   C12   D    
C14   C46   A    
C76   C80   A    
C52   C84   A    
C31   Cl3   S    
O4    V2    S    
C68   C83   A    
C42   C54   A    
O1    C5    A    
C44   C71   A    
C41   C53   A    
C32   C60   A    
C42   C69   A    
O9    V1    S    
C41   C70   A    
N3    C39   S    
C18   C54   A    
N2    C38   S    
C11   H3    S    
O4    C8    A    
C25   C57   A    
C31   C35   A    
C22   H9    S    
C21   C37   A    
C27   C59   A    
C15   C47   A    
O1    V3    S    
O13   V1    S    
C55   C80   A    
O2    V4    S    
C14   O22   S    
C54   C77   A    
C81   H17   S    
O3    V1    S    
C34   C38   A    
C19   C55   A    
C1    O15   A    
C2    O16   A    
C7    C9    S    
O2    C6    A    
C33   C37   A    
C25   H6    S    
C34   F2    S    
C66   C81   A    
C73   F9    S    
C74   C78   A    
C43   C55   A    
C61   C66   A    
C44   C48   A    
C30   C58   A    
C61   C69   A    
C16   N4    A    
O11   C7    A    
C63   C68   A    
O15   V3    S    
O12   C8    A    
C77   H13   S    
C31   C59   A    
C52   F8    S    
C63   C75   A    
O10   V2    S    
C67   C84   A    
C24   H11   S    
C13   N1    A    
C27   H8    S    
O5    V1    S    
C19   O28   S    
C65   C69   A    
C23   H12   S    
C64   C72   A    
O7    V3    S    
O8    V4    S    
C21   H10   S    
C12   H4    S    
C28   C60   A    
O18   V4    S    
N4    C40   S    
C46   C50   A    
C24   C40   A    
C64   C67   A    
C8    C10   S    
C32   C36   A    
C10   H2    S    
C44   C56   A    
O7    C3    A    
O5    C1    A    
C74   F10   S    
C29   Cl1   S    
C42   C46   A    
C41   C45   A    
O8    C4    A    
C28   H7    S    
C13   C45   A    
C9    C10   D    
C78   H14   S    
O9    C5    A    
C36   C40   A    
N2    C18   A    
O11   V3    S    
C1    C60   S    
C82   H18   S    
C14   N2    A    
C30   Cl2   S    
C3    C58   S    
O6    V2    S    
C35   C39   A    
C64   C76   A    
C26   C58   A    
C17   C53   A    
O14   V2    S    
C20   O27   S    
N1    C37   S    
C4    C57   S    
C5    C11   S    
C75   F11   S    
C23   C39   A    
C68   C72   A    
C63   C71   A    
C22   C38   A    
O16   V4    S    
C66   C70   A    
C53   C78   A    
C3    O13   A    
C17   O26   S    
C84   H20   S    
C48   C52   A    
C16   C48   A    
C47   C51   A    
O6    C2    A    
C26   H5    S    
C75   C79   A    
C21   C25   A    
C80   H16   S    
C73   C77   A    
O12   V4    S    
C62   C65   A    
C6    C12   S    
C23   C27   A    
C65   C82   A    
C62   C70   A    
C24   C28   A    
C49   C81   A    
O10   C6    A    
C50   F6    S    
C61   C73   A    
C36   F4    S    
C51   C83   A    
C15   N3    A    
C30   C34   A    
C79   H15   S    
C2    C59   S    
C29   C33   A    
C51   F7    S    
O20   V2    S    
C29   C57   A    
C49   F5    S    
C43   C72   A    
C32   Cl4   S    
N3    C19   A    
C50   C82   A    
C56   C79   A    
C9    H1    S    
C43   C47   A    
N4    C20   A    
C20   C56   A    
C76   F12   S    
C18   O25   S    
C4    O14   A    
C13   O21   S    
C67   C71   A    
C15   O23   S    
C45   C49   A    
C16   O24   S    
