data_str_m9_o2_o17_f0_sra.sym.47
_audit_creation_date              2012-12-11T16:26:28-0500
_audit_creation_method            fapswitch 2.2
_symmetry_space_group_name_H-M    P1
_symmetry_Int_Tables_number       1
_space_group_crystal_system       triclinic
_cell_length_a                    6.927808
_cell_length_b                    17.534729
_cell_length_c                    19.547147
_cell_angle_alpha                 108.743328
_cell_angle_beta                  89.788843
_cell_angle_gamma                 90.375342
_cell_volume                      2248.5546923

loop_
_atom_site_label
_atom_site_type_symbol
_atom_type_description
_atom_site_fract_x
_atom_site_fract_y
_atom_site_fract_z
_atom_type_partial_charge
O1    O     O_R   0.494330 0.415720 0.413720 -0.533087
O2    O     O_R   0.819330 0.430070 0.560210 -0.512819
O3    O     O_R   0.994320 0.584280 0.586280 -0.530035
C1    C     C_R   0.651158 0.417551 0.583757 0.793182
O4    O     O_R   0.823730 0.406300 0.412670 -0.522693
O5    O     O_R   0.998760 0.560340 0.437690 -0.501687
C2    C     C_R   0.654799 0.383425 0.384956 0.950350
O6    O     O_R   0.489890 0.439660 0.562310 -0.573938
O7    O     O_3   0.662340 0.550560 0.508380 -0.355322
V1    V     V_3+5 0.935370 0.490620 0.498450 1.629999
O8    O     O_R   0.328750 0.569930 0.439790 -0.499263
C3    C     C_R   0.160564 0.585740 0.418536 0.922435
O9    O     O_R   0.324340 0.593700 0.587330 -0.557005
C4    C     C_R   0.155502 0.617334 0.614442 0.785224
V2    V     V_3+5 0.435940 0.509380 0.501550 1.588925
O10   O     O_3   0.159100 0.449440 0.491620 -0.394709
C5    C     C_R   0.278345 0.598650 0.748080 -0.161604
C6    C     C_R   0.333945 0.585678 0.811642 -0.218944
C7    C     C_R   0.316277 0.646755 0.877141 -0.156589
C8    C     C_R   0.244741 0.721790 0.879865 0.584356
C9    C     C_R   0.190699 0.737750 0.815537 -0.040833
C10   C     C_R   0.205887 0.674178 0.748371 -0.000916
C11   C     C_R   0.119317 0.814125 0.816720 -0.142988
C12   C     C_R   0.061195 0.826149 0.751313 -0.006548
C13   C     C_R   0.075884 0.762547 0.684160 -0.094943
C14   C     C_R   0.146628 0.686049 0.683040 -0.130507
C15   C     C_R   0.990825 0.901910 0.751576 -0.189205
C16   C     C_R   0.936325 0.915178 0.688052 -0.278404
C17   C     C_R   0.952633 0.853924 0.622123 0.188047
C18   C     C_R   0.022653 0.778530 0.619732 0.606072
H1    H     H_    0.292431 0.548319 0.698870 0.120025
H2    H     H_    0.389373 0.527547 0.810088 0.158061
H3    H     H_    0.357192 0.635723 0.926526 0.153044
H4    H     H_    0.977720 0.952298 0.800809 0.137706
H5    H     H_    0.882777 0.973772 0.690051 0.158141
C19   C     C_R   0.994406 0.630196 0.323614 0.520804
C20   C     C_R   0.153104 0.636986 0.370347 -0.139815
C21   C     C_R   0.303922 0.692234 0.370343 0.138736
C22   C     C_R   0.297017 0.738183 0.322354 0.042879
C23   C     C_R   0.136346 0.730429 0.276059 -0.034783
C24   C     C_R   0.984237 0.676981 0.277302 -0.027706
C25   C     C_R   0.446873 0.791996 0.319535 -0.164687
C26   C     C_R   0.438941 0.836075 0.271502 -0.181432
C27   C     C_R   0.280724 0.828648 0.225550 0.100231
C28   C     C_R   0.127602 0.776298 0.228177 0.105153
C29   C     C_R   0.965957 0.769675 0.182811 0.081914
C30   C     C_R   0.815166 0.716863 0.185083 -0.200584
C31   C     C_R   0.824466 0.670775 0.231557 -0.087533
C32   C     C_R   0.273306 0.872885 0.177146 -0.185324
C33   C     C_R   0.112249 0.867056 0.132078 -0.045898
C34   C     C_R   0.958175 0.815708 0.135774 -0.196299
H6    H     H_    0.572839 0.800114 0.353716 0.128995
H7    H     H_    0.557451 0.876008 0.270192 0.117159
H8    H     H_    0.391877 0.912943 0.175441 0.113841
H9    H     H_    0.833308 0.810634 0.101277 0.136826
H10   H     H_    0.689745 0.711051 0.150769 0.150508
H11   H     H_    0.705330 0.630526 0.231807 0.225434
C35   C     C_R   0.770469 0.188420 0.873754 0.507055
C36   C     C_R   0.621652 0.132262 0.867125 -0.196543
C37   C     C_R   0.478210 0.122486 0.813979 0.081425
C38   C     C_R   0.479507 0.171957 0.768406 0.070565
C39   C     C_R   0.633147 0.229113 0.775791 -0.127157
C40   C     C_R   0.779841 0.236909 0.828271 -0.084168
C41   C     C_R   0.333721 0.166755 0.715688 0.214603
C42   C     C_R   0.342789 0.216143 0.672327 -0.219597
C43   C     C_R   0.492924 0.270994 0.678671 0.080317
C44   C     C_R   0.640115 0.278388 0.730281 -0.001373
C45   C     C_R   0.792514 0.335055 0.736142 0.010573
C46   C     C_R   0.938082 0.341628 0.788863 0.187188
C47   C     C_R   0.931954 0.293350 0.834011 0.178926
C48   C     C_R   0.496060 0.317914 0.632887 -0.244639
C49   C     C_R   0.645879 0.372248 0.636207 -0.075413
C50   C     C_R   0.792593 0.382711 0.688577 0.163359
H12   H     H_    0.229676 0.211167 0.632850 0.132695
H13   H     H_    0.383142 0.310684 0.592943 0.144632
H14   H     H_    0.896428 0.134085 0.419627 0.140463
C51   C     C_R   0.520373 0.406534 0.250760 0.517709
C52   C     C_R   0.450147 0.417484 0.187818 0.629979
C53   C     C_R   0.435036 0.352791 0.124700 -0.282231
C54   C     C_R   0.491059 0.276488 0.123608 -0.231243
C55   C     C_R   0.560168 0.262525 0.186660 0.020461
C56   C     C_R   0.573814 0.328526 0.252216 -0.158168
C57   C     C_R   0.621924 0.184718 0.184061 -0.065223
C58   C     C_R   0.699467 0.172406 0.246808 -0.030623
C59   C     C_R   0.704855 0.236796 0.313590 -0.059103
C60   C     C_R   0.643687 0.315265 0.316146 -0.153916
C61   C     C_R   0.770282 0.095860 0.244355 -0.179623
C62   C     C_R   0.847228 0.082518 0.305277 0.169881
C63   C     C_R   0.843311 0.144326 0.371277 -0.191536
C64   C     C_R   0.769974 0.219706 0.376211 0.537652
H15   H     H_    0.382394 0.361930 0.075834 0.183102
H16   H     H_    0.481734 0.229025 0.072220 0.162978
H17   H     H_    0.768365 0.045053 0.195185 0.131811
O11   O     O_R   0.775200 0.060470 0.937800 -0.518538
O12   O     O_R   0.441110 0.093720 0.087350 -0.549749
O13   O     O_R   0.266330 0.939630 0.062280 -0.529841
C65   C     C_R   0.610069 0.116380 0.115228 0.668129
O14   O     O_R   0.445750 0.069950 0.939820 -0.532626
O15   O     O_R   0.271000 0.915700 0.913700 -0.517925
C66   C     C_R   0.614313 0.083974 0.917376 0.812693
O16   O     O_R   0.770530 0.084400 0.086380 -0.539682
O17   O     O_3   0.602830 0.949510 0.991680 -0.372639
V3    V     V_3+5 0.329710 0.009370 0.001550 1.527212
O18   O     O_R   0.940990 0.906170 0.912570 -0.549867
C67   C     C_R   0.109936 0.882667 0.885439 0.822314
O19   O     O_R   0.936350 0.929940 0.060100 -0.556127
C68   C     C_R   0.104462 0.915466 0.082198 0.795652
V4    V     V_3+5 0.829160 0.990450 0.998310 1.500776
O20   O     O_3   0.105910 0.050480 0.008320 -0.359324
N1    N     N_3   0.899494 0.867931 0.556497 -0.617280
H18   H     H_    0.754641 0.885242 0.560708 0.221465
H19   H     H_    0.982189 0.916191 0.551985 0.219039
N2    N     N_3   0.460293 0.702708 0.420654 -0.590359
H20   H     H_    0.589828 0.688400 0.391914 0.279168
H21   H     H_    0.464735 0.762893 0.453711 0.226513
F1    F     F_    0.902034 0.196382 0.926948 -0.708137
N3    N     N_3   0.337459 0.059831 0.806512 -0.647907
H22   H     H_    0.343725 0.018317 0.754428 0.258993
H23   H     H_    0.200214 0.084901 0.819079 0.281464
N4    N     N_3   0.173408 0.112169 0.705081 -0.707986
H24   H     H_    0.176189 0.073746 0.651626 0.227461
H25   H     H_    0.045797 0.145369 0.712639 0.232651
N5    N     N_3   0.934960 0.444004 0.693082 -0.673180
H26   H     H_    0.930278 0.487701 0.744112 0.259645
H27   H     H_    0.071369 0.417986 0.680844 0.258057
N6    N     N_3   0.095512 0.397581 0.797789 -0.692929
H28   H     H_    0.225517 0.365979 0.789861 0.258417
H29   H     H_    0.092709 0.437742 0.850565 0.257005
N7    N     N_3   0.086504 0.303397 0.885038 -0.654393
H30   H     H_    0.159299 0.248909 0.875251 0.283669
H31   H     H_    0.031204 0.323911 0.937570 0.292440
F2    F     F_    0.539753 0.473864 0.308754 -0.633151
F3    F     F_    0.399071 0.492081 0.187858 -0.655164
N8    N     N_3   0.930140 0.005693 0.298866 -0.661727
H32   H     H_    0.982322 0.005131 0.348824 0.230743
H33   H     H_    0.820135 0.962588 0.284155 0.219930
F4    F     F_    0.760202 0.274106 0.443446 -0.727464
F5    F     F_    0.225775 0.777058 0.946345 -0.722200
F6    F     F_    0.041538 0.722677 0.553482 -0.708450
F7    F     F_    0.851146 0.576295 0.321715 -0.643549

loop_
_geom_bond_atom_site_label_1
_geom_bond_atom_site_label_2
_ccdc_geom_bond_type
C27   C32   A    
O15   V3    S    
C61   C62   A    
N6    H28   S    
C7    C8    A    
C12   C15   A    
C1    C49   S    
C1    O6    A    
C55   C56   A    
C31   H11   S    
C59   C60   A    
N4    H24   S    
O11   V4    S    
C17   C18   A    
C39   C44   A    
C57   C58   A    
C19   C20   A    
N7    H30   S    
N3    H23   S    
O5    C3    A    
C21   C22   A    
N5    H27   S    
C2    C60   S    
O19   C68   A    
V2    O10   S    
C11   C67   S    
C13   C18   A    
V4    O20   S    
C6    C7    A    
C8    F5    S    
C3    C20   S    
N1    H18   S    
O8    V2    S    
C26   H7    S    
C43   C48   A    
C16   H5    S    
O12   V3    S    
C45   C46   A    
C50   N5    S    
O14   V3    S    
C11   C12   A    
C58   C61   A    
O17   V4    S    
O1    V2    S    
O7    V1    S    
C53   H15   S    
C38   C39   A    
C51   C52   A    
H14   C63   S    
C62   C63   A    
C45   C50   A    
O16   V4    S    
C43   C44   A    
C36   C37   A    
O9    C4    A    
C35   F1    S    
C36   C66   S    
C19   C24   A    
O17   V3    S    
O18   C67   A    
C55   C57   A    
N4    H25   S    
C5    C6    A    
C22   C25   A    
C15   H4    S    
C23   C28   A    
O15   C67   A    
C44   C45   A    
C17   N1    S    
N5    H26   S    
C12   C13   A    
C7    H3    S    
C22   C23   A    
O4    C2    A    
C21   N2    S    
C52   C53   A    
C49   C50   A    
N8    H33   S    
C13   C14   A    
C56   C60   A    
C29   C34   A    
C47   N7    S    
C4    C14   S    
C42   H12   S    
C37   C38   A    
C51   F2    S    
C54   H16   S    
C38   C41   A    
O2    C1    A    
C26   C27   A    
C20   C21   A    
C30   C31   A    
C40   C47   A    
O11   C66   A    
C59   C64   A    
C39   C40   A    
C33   C34   A    
C37   N3    S    
C58   C59   A    
C19   F7    S    
O3    C4    A    
C23   C24   A    
O13   C68   A    
C46   N6    S    
C42   C43   A    
O6    V2    S    
O14   C66   A    
C9    C11   A    
C10   C14   A    
C33   C68   S    
C5    H1    S    
C6    H2    S    
C25   C26   A    
O2    V1    S    
O18   V4    S    
C64   F4    S    
C27   C28   A    
N2    H20   S    
C35   C40   A    
C29   C30   A    
C16   C17   A    
N6    H29   S    
C18   F6    S    
O1    C2    A    
C54   C55   A    
O5    V1    S    
O8    C3    A    
O12   C65   A    
N8    H32   S    
C5    C10   A    
C41   N4    S    
V3    O20   S    
C41   C42   A    
O9    V2    S    
C35   C36   A    
C62   N8    S    
O4    V1    S    
O3    V1    S    
V1    O10   S    
N3    H22   S    
C48   H13   S    
O19   V4    S    
C51   C56   A    
C61   H17   S    
C24   C31   A    
C34   H9    S    
O7    V2    S    
C46   C47   A    
C52   F3    S    
N1    H19   S    
C53   C54   A    
C28   C29   A    
C48   C49   A    
C8    C9    A    
C32   C33   A    
C57   C65   S    
O13   V3    S    
C15   C16   A    
N2    H21   S    
C63   C64   A    
C9    C10   A    
C65   O16   A    
C32   H8    S    
C25   H6    S    
C30   H10   S    
N7    H31   S    
