data_str_m3_o10_o29_f0_pcu.sym.140
_audit_creation_date              2012-12-10T16:59:14-0500
_audit_creation_method            fapswitch 2.2
_symmetry_space_group_name_H-M    P1
_symmetry_Int_Tables_number       1
_space_group_crystal_system       triclinic
_cell_length_a                    7.718849
_cell_length_b                    8.550725
_cell_length_c                    27.682217
_cell_angle_alpha                 90.707114
_cell_angle_beta                  86.140408
_cell_angle_gamma                 93.803065
_cell_volume                      1818.8599309

loop_
_atom_site_label
_atom_site_type_symbol
_atom_type_description
_atom_site_fract_x
_atom_site_fract_y
_atom_site_fract_z
_atom_type_partial_charge
C1    C     C_R   0.546072 0.794960 0.498720 0.964019
C2    C     C_R   0.626334 0.599853 0.124170 -0.236105
C3    C     C_R   0.508243 0.487224 0.646917 -0.127229
C4    C     C_R   0.492926 0.502465 0.353016 -0.124035
C5    C     C_R   0.647087 0.579107 0.022104 -0.152311
C6    C     C_R   0.481520 0.319269 0.975209 -0.071428
C7    C     C_R   0.462912 0.333127 0.026377 0.132171
C8    C     C_R   0.623767 0.585277 0.971970 0.119102
C9    C     C_R   0.549949 0.461662 0.049643 0.026119
C10   C     C_R   0.546318 0.452682 0.948382 0.017046
C11   C     C_R   0.757024 0.690280 0.046203 0.309069
C12   C     C_R   0.453928 0.205040 0.501278 0.960124
C13   C     C_R   0.435825 0.178467 0.950101 0.292690
C14   C     C_R   0.735129 0.709247 0.096466 0.543765
C15   C     C_R   0.417799 0.181542 0.899617 0.436122
C16   C     C_R   0.502698 0.497209 0.594098 0.932932
C17   C     C_R   0.497353 0.501328 0.405917 0.936132
C18   C     C_R   0.664169 0.723998 0.945435 -0.238259
C19   C     C_R   0.350361 0.228965 0.054820 -0.142570
C20   C     C_2   0.570440 0.958467 0.497990 -0.357653
C21   C     C_2   0.429561 0.041534 0.502006 -0.356605
C22   C     C_R   0.566229 0.595593 0.822113 0.570626
C23   C     C_R   0.532202 0.454911 0.897856 -0.137433
C24   C     C_R   0.418107 0.376151 0.178450 0.585318
C25   C     C_R   0.457539 0.327463 0.822733 0.616251
C26   C     C_R   0.607684 0.608745 0.175026 0.602677
C27   C     C_R   0.659516 0.438582 0.719354 0.396838
C28   C     C_R   0.349789 0.547066 0.278853 0.399316
C29   C     C_R   0.659056 0.442498 0.668301 0.307840
C30   C     C_R   0.348178 0.552964 0.330104 0.298051
C31   C     C_R   0.358070 0.516723 0.676214 -0.283980
C32   C     C_R   0.639467 0.456040 0.325113 -0.284430
C33   C     C_R   0.356789 0.504035 0.726066 -0.191424
C34   C     C_R   0.536768 0.474313 0.100653 -0.122799
C35   C     C_R   0.643452 0.458125 0.275188 -0.197705
C36   C     C_R   0.506524 0.465689 0.747410 0.239817
C37   C     C_R   0.499917 0.502957 0.252150 0.234044
C38   C     C_3   0.757037 0.969682 0.113797 -0.135739
C39   C     C_3   0.176535 0.032229 0.881334 -0.215022
C40   C     C_R   0.581597 0.593716 0.871940 0.018040
C41   C     C_R   0.430590 0.362798 0.128097 -0.000638
C42   C     C_R   0.644035 0.727942 0.896186 -0.140299
C43   C     C_R   0.336758 0.242118 0.104834 -0.194619
C44   C     C_R   0.466829 0.320012 0.873329 -0.198669
H1    H     H_    0.240666 0.549092 0.660608 0.205323
H2    H     H_    0.263772 0.141212 0.039066 0.217775
H3    H     H_    0.703341 0.009900 0.494170 0.182862
H4    H     H_    0.296660 0.990102 0.505826 0.183141
H5    H     H_    0.155080 0.687824 0.338954 0.347954
H6    H     H_    0.863761 0.323029 0.656283 0.345606
H7    H     H_    0.100842 0.557836 0.274629 0.344362
H8    H     H_    0.910708 0.447001 0.722307 0.336723
H9    H     H_    0.620921 0.963663 0.130157 0.158769
H10   H     H_    0.759804 0.005707 0.075253 0.170920
H11   H     H_    0.832246 0.062238 0.133464 0.183270
H12   H     H_    0.752230 0.418085 0.341866 0.206506
H13   H     H_    0.118752 0.134776 0.865786 0.175252
H14   H     H_    0.128957 0.017237 0.919952 0.148011
H15   H     H_    0.129897 0.926187 0.861293 0.205896
H16   H     H_    0.938303 0.711182 0.994492 0.338245
H17   H     H_    0.402949 0.948831 0.952366 0.373864
H18   H     H_    0.014384 0.383408 0.463469 0.202376
H19   H     H_    0.985612 0.616580 0.536534 0.205241
H20   H     H_    0.240355 0.527107 0.748352 0.177931
H21   H     H_    0.757653 0.422283 0.254108 0.183843
H22   H     H_    0.677440 0.837067 0.877235 0.208099
H23   H     H_    0.249428 0.158735 0.125155 0.208203
H24   H     H_    0.705066 0.833118 0.962638 0.213231
N1    N     N_R   0.507115 0.463443 0.798799 -0.338795
N2    N     N_R   0.505987 0.497458 0.200591 -0.329574
N3    N     N_2   0.950320 0.457960 0.486880 -0.154916
N4    N     N_2   0.049680 0.542040 0.513120 -0.154149
O1    O     O_R   0.389250 0.738570 0.503220 -0.613460
O2    O     O_2   0.320389 0.268109 0.205289 -0.538671
O3    O     O_2   0.690433 0.726449 0.199104 -0.486937
O4    O     O_2   0.401854 0.200517 0.797265 -0.474403
O5    O     O_3   0.211751 0.611227 0.358136 -0.753384
O6    O     O_3   0.800579 0.399908 0.638994 -0.755294
O7    O     O_3   0.208516 0.581637 0.253803 -0.730779
O8    O     O_3   0.806377 0.411749 0.743102 -0.760518
O9    O     O_3   0.834837 0.826299 0.118620 -0.530729
O10   O     O_3   0.360071 0.046477 0.875854 -0.567944
O11   O     O_3   0.896156 0.774127 0.022680 -0.756449
O12   O     O_R   0.610750 0.261430 0.496780 -0.614664
O13   O     O_3   0.422965 0.037992 0.974838 -0.792776
O14   O     O_R   0.678390 0.711630 0.494810 -0.633512
O15   O     O_R   0.321610 0.288370 0.505190 -0.634480
O16   O     O_R   0.355440 0.513440 0.575450 -0.631618
O17   O     O_R   0.644560 0.486560 0.424550 -0.633004
O18   O     O_R   0.644590 0.486500 0.567040 -0.561311
O19   O     O_R   0.355410 0.513500 0.432960 -0.564544
O20   O     O_2   0.611746 0.727741 0.796824 -0.519065
Zn1   Zn    Zn3+2 0.306940 0.517990 0.505620 0.989263
Zn2   Zn    Zn3+2 0.693060 0.482010 0.494380 0.989150

loop_
_geom_bond_atom_site_label_1
_geom_bond_atom_site_label_2
_ccdc_geom_bond_type
C16   O18   A    
C27   C29   A    
C17   O19   A    
O1    Zn1   S    
C19   H2    S    
C24   N2    A    
N3    Zn2   S    
C35   C37   A    
C15   C44   A    
C5    C11   A    
C18   C42   A    
H16   O11   S    
C35   H21   S    
C18   H24   S    
C23   C40   A    
C39   H13   S    
C33   C36   A    
C12   O12   A    
O17   Zn2   S    
C3    C29   A    
C28   O7    S    
C10   C23   A    
O14   Zn2   S    
C30   O5    S    
C29   O6    S    
C31   C33   A    
C22   N1    A    
C21   H4    S    
C2    C34   A    
C40   C42   A    
C39   H15   S    
C37   N2    S    
C24   C41   A    
C41   C43   A    
C34   C41   A    
H6    O6    S    
C25   C44   A    
C19   C43   A    
O18   Zn2   S    
C15   O10   S    
C38   H11   S    
C32   C35   A    
C17   O17   A    
C27   O8    S    
C11   O11   S    
C39   H14   S    
C12   C21   S    
C8    C18   A    
C23   C44   A    
C5    C9    A    
O19   Zn1   S    
C38   H10   S    
C22   C40   A    
C26   O3    S    
C2    C26   A    
O12   Zn2   S    
H19   N4    S    
C3    C31   A    
C4    C32   A    
H17   O13   S    
N4    Zn1   S    
C43   H23   S    
C7    C19   A    
C13   C15   A    
C38   O9    S    
C9    C34   A    
C26   N2    A    
C25   N1    A    
C4    C17   S    
C36   N1    S    
C42   H22   S    
C1    O14   A    
C7    C9    A    
O16   Zn1   S    
C1    C20   S    
C12   O15   A    
C39   O10   S    
C6    C10   A    
C5    C8    A    
C6    C7    A    
C27   C36   A    
C25   O4    S    
C1    O1    A    
C28   C30   A    
N3    N4    D    
C6    C13   A    
C24   O2    S    
C38   H9    S    
C28   C37   A    
C33   H20   S    
O15   Zn1   S    
C11   C14   A    
H5    O5    S    
H18   N3    S    
C2    C14   A    
H7    O7    S    
C20   H3    S    
C20   C21   D    
C8    C10   A    
C31   H1    S    
C13   O13   S    
C16   O16   A    
C22   O20   S    
C14   O9    S    
H8    O8    S    
C32   H12   S    
C4    C30   A    
C3    C16   S    
