data_str_m3_o14_o24_f0_pcu.sym.233
_audit_creation_date              2013-03-05T15:54:13-0500
_audit_creation_method            fapswitch 2.2
_symmetry_space_group_name_H-M    P1
_symmetry_Int_Tables_number       1
_space_group_crystal_system       triclinic
_cell_length_a                    10.507434
_cell_length_b                    10.753121
_cell_length_c                    9.914854
_cell_angle_alpha                 86.545769
_cell_angle_beta                  89.367251
_cell_angle_gamma                 92.627532
_cell_volume                      1116.93870904

loop_
_atom_site_label
_atom_site_type_symbol
_atom_site_description
_atom_site_fract_x
_atom_site_fract_y
_atom_site_fract_z
_atom_type_partial_charge
O1    O     O_R   0.500000 0.316780 0.614690 -0.650938
O2    O     O_R   0.499990 0.316750 0.385360 -0.640401
C1    C     C_R   0.500710 0.259367 0.504795 0.867325
O3    O     O_R   0.313960 0.499980 0.614650 -0.660258
O4    O     O_R   0.313940 0.499960 0.385310 -0.610760
C2    C     C_R   0.257637 0.500630 0.500643 0.903299
Zn1   Zn    Zn3+2 0.500010 0.500020 0.653130 0.922585
Zn2   Zn    Zn3+2 0.499990 0.499980 0.346870 0.964720
O5    O     O_R   0.500010 0.683250 0.614640 -0.635935
O6    O     O_R   0.500000 0.683220 0.385310 -0.582053
O7    O     O_R   0.686060 0.500040 0.614690 -0.620805
O8    O     O_R   0.686040 0.500020 0.385350 -0.627183
C3    C     C_R   0.494056 0.739488 0.495623 0.900246
C4    C     C_R   0.742487 0.500933 0.499254 0.891867
C5    C     C_3   0.038333 0.495833 0.629149 -0.200570
C6    C     C_3   0.952128 0.396390 0.563803 -0.139238
H1    H     H_    0.908526 0.310072 0.615527 0.139536
H2    H     H_    0.073194 0.489936 0.734557 0.168586
C7    C     C_3   0.877415 0.502229 0.497942 -0.018912
C8    C     C_3   0.960464 0.601903 0.563609 -0.251380
C9    C     C_3   0.046059 0.606108 0.437368 0.367965
C10   C     C_3   0.961070 0.509337 0.369838 -0.198419
C11   C     C_3   0.038787 0.403573 0.436216 -0.231471
C12   C     C_3   0.122927 0.502758 0.501590 -0.072640
H3    H     H_    0.924784 0.683410 0.613633 0.148551
H4    H     H_    0.926725 0.516516 0.264257 0.159400
H5    H     H_    0.074737 0.322726 0.385226 0.146022
H6    H     H_    0.602282 0.132596 0.321299 0.178922
C13   C     C_R   0.404497 0.089594 0.745217 -0.188529
H7    H     H_    0.444106 0.173950 0.782887 0.179110
C14   C     C_R   0.325003 0.015087 0.833855 -0.173232
H8    H     H_    0.299594 0.046889 0.931560 0.163367
C15   C     C_R   0.279529 0.898787 0.797505 -0.176288
H9    H     H_    0.214989 0.842261 0.864312 0.151323
C16   C     C_R   0.323596 0.852235 0.678684 -0.103502
H10   H     H_    0.288798 0.760011 0.654528 0.163279
C17   C     C_R   0.412406 0.923384 0.593443 0.096348
C18   C     C_R   0.440044 0.048616 0.617849 0.085429
C19   C     C_R   0.503106 0.125232 0.513691 -0.133389
C20   C     C_R   0.553754 0.073670 0.400544 -0.252454
C21   C     C_R   0.543029 0.947632 0.385918 -0.033957
C22   C     C_R   0.477118 0.871318 0.486551 -0.118382
H11   H     H_    0.664969 0.616545 0.115982 0.166582
C23   C     C_R   0.316775 0.350498 0.151147 -0.131681
H12   H     H_    0.317805 0.335044 0.258130 0.194625
C24   C     C_R   0.221215 0.284204 0.086280 -0.201477
H13   H     H_    0.150901 0.226538 0.144828 0.154370
C25   C     C_R   0.219077 0.287764 0.946607 -0.215259
H14   H     H_    0.147351 0.232592 0.896222 0.158123
C26   C     C_R   0.314136 0.355317 0.871454 -0.190275
H15   H     H_    0.316188 0.341255 0.766108 0.203846
C27   C     C_R   0.407778 0.429339 0.933322 0.157043
C28   C     C_R   0.408373 0.428315 0.077861 0.179986
N1    N     N_R   0.498800 0.498800 0.142780 -0.123975
C29   C     C_R   0.590674 0.564430 0.066231 -0.112644
H16   H     H_    0.663971 0.618389 0.865007 0.147880
C30   C     C_R   0.590352 0.564938 0.923068 -0.113371
N2    N     N_R   0.498760 0.498720 0.857170 -0.123841
C31   C     C_R   0.597886 0.903501 0.260367 0.125125
C32   C     C_R   0.730680 0.906445 0.241380 -0.144569
C33   C     C_R   0.782926 0.886892 0.114444 -0.109785
C34   C     C_R   0.703046 0.865761 0.005598 -0.176883
C35   C     C_R   0.570794 0.861998 0.024031 -0.160437
C36   C     C_R   0.518084 0.880662 0.150945 -0.076481
H17   H     H_    0.793258 0.927818 0.323788 0.167123
H18   H     H_    0.885283 0.890501 0.099652 0.176822
H19   H     H_    0.743554 0.851667 0.907138 0.135812
H20   H     H_    0.509388 0.844416 0.939823 0.167991
H21   H     H_    0.415485 0.881330 0.162970 0.166967
N3    N     N_R   0.096108 0.722047 0.368549 0.191637
O9    O     O_R   0.017763 0.803550 0.321564 -0.455733
O10   O     O_R   0.218080 0.746140 0.355465 -0.434703

loop_
_geom_bond_atom_site_label_1
_geom_bond_atom_site_label_2
_geom_bond_distance
_ccdc_geom_bond_type
C5    H2    1.110427 S    
C21   C22   1.408023 A    
C16   H10   1.082508 S    
C28   N1    1.377613 A    
C27   C28   1.432546 A    
Zn1   O7    1.987566 S    
C31   C36   1.404906 A    
C13   H7    1.070117 S    
C34   H19   1.082451 S    
C16   C17   1.417604 A    
C17   C18   1.400460 A    
O4    C2    1.282221 A    
O7    C4    1.282475 A    
C8    H3    1.110462 S    
H6    C20   1.086443 S    
C5    C6    1.546388 S    
H16   C30   1.081501 S    
C17   C22   1.410500 A    
O5    C3    1.296621 A    
C24   H13   1.082822 S    
C23   C28   1.411367 A    
C7    C8    1.531356 S    
C6    H1    1.110356 S    
C13   C18   1.414269 A    
C26   C27   1.406537 A    
C11   C12   1.532572 S    
C14   C15   1.387626 A    
N3    O9    1.299308 A    
C11   H5    1.110363 S    
Zn1   N2    2.022126 S    
C25   C26   1.390096 A    
C1    C19   1.441142 S    
C31   C32   1.404563 A    
C9    C10   1.529887 S    
O3    Zn1   1.995906 S    
C33   H18   1.082467 S    
C3    C22   1.434374 S    
C23   C24   1.390646 A    
C15   H9    1.082524 S    
C5    C8    1.549401 S    
C24   C25   1.383511 A    
C7    C10   1.532708 S    
C21   C31   1.478992 S    
O3    C2    1.281492 A    
Zn2   N1    2.024499 S    
C19   C20   1.392111 A    
C32   C33   1.398840 A    
O1    C1    1.284407 A    
C34   C35   1.398016 A    
C14   H8    1.081321 S    
Zn2   O8    1.995907 S    
C2    C12   1.416626 S    
C26   H15   1.064480 S    
C36   H21   1.083717 S    
C27   N2    1.375270 A    
H11   C29   1.080971 S    
C20   C21   1.371358 A    
O8    C4    1.281756 A    
C32   H17   1.083243 S    
C6    C11   1.546498 S    
C29   C30   1.419165 A    
C23   H12   1.063966 S    
Zn1   O5    1.984209 S    
N1    C29   1.364850 A    
C5    C12   1.533920 S    
O1    Zn1   2.029340 S    
C4    C7    1.417081 S    
O2    Zn2   1.984209 S    
O6    C3    1.283727 A    
O4    Zn2   1.987565 S    
C35   H20   1.081147 S    
C9    N3    1.458040 S    
O2    C1    1.302179 A    
C13   C14   1.396245 A    
C30   N2    1.366469 A    
C18   C19   1.420079 A    
C6    C7    1.530248 S    
C25   H14   1.082850 S    
C15   C16   1.390376 A    
C33   C34   1.397433 A    
C35   C36   1.398444 A    
C8    C9    1.530422 S    
Zn2   O6    2.029340 S    
C10   H4    1.110493 S    
C9    C12   1.516990 S    
C10   C11   1.549273 S    
N3    O10   1.299346 A    
