data_str_m3_o41_o41_f0_fof.sym.69
_audit_creation_date              2012-12-10T16:39:38-0500
_audit_creation_method            fapswitch 2.2
_symmetry_space_group_name_H-M    P1
_symmetry_Int_Tables_number       1
_space_group_crystal_system       triclinic
_cell_length_a                    17.038596
_cell_length_b                    16.750958
_cell_length_c                    16.750952
_cell_angle_alpha                 64.918965
_cell_angle_beta                  65.49075
_cell_angle_gamma                 65.490832
_cell_volume                      3770.6549717

loop_
_atom_site_label
_atom_site_type_symbol
_atom_type_description
_atom_site_fract_x
_atom_site_fract_y
_atom_site_fract_z
_atom_type_partial_charge
C1    C     C_R   0.316306 0.001771 0.430763 -0.016437
C2    C     C_R   0.316306 0.430764 0.001771 -0.016437
C3    C     C_R   0.550205 0.420012 0.972177 0.016416
C4    C     C_R   0.015368 0.451335 0.587342 0.018192
C5    C     C_R   0.984632 0.548665 0.412658 0.018192
C6    C     C_1   0.327636 0.828859 0.362329 0.219532
C7    C     C_1   0.672364 0.171141 0.637671 0.219532
C8    C     C_1   0.874751 0.293397 0.293397 0.254443
C9    C     C_1   0.125249 0.706603 0.706603 0.254443
C10   C     C_1   0.327636 0.362329 0.828859 0.219532
C11   C     C_1   0.672363 0.637671 0.171141 0.219532
C12   C     C_1   0.260964 0.052181 0.794033 0.191003
C13   C     C_R   0.063151 0.670473 0.535683 0.024163
C14   C     C_1   0.739036 0.947819 0.205967 0.191004
C15   C     C_1   0.044773 0.804593 0.253694 0.184997
C16   C     C_1   0.955227 0.195407 0.746306 0.184997
C17   C     C_1   0.823545 0.309327 0.966696 0.190698
C18   C     C_1   0.176455 0.690673 0.033305 0.190698
C19   C     C_1   0.176453 0.033309 0.690671 0.190697
C20   C     C_1   0.823546 0.966691 0.309329 0.190697
C21   C     C_1   0.739034 0.205966 0.947823 0.191004
C22   C     C_1   0.260966 0.794034 0.052177 0.191004
C23   C     C_1   0.955229 0.746304 0.195405 0.184997
C24   C     C_R   0.936849 0.329527 0.464317 0.024163
C25   C     C_1   0.044770 0.253696 0.804595 0.184997
C26   C     C_1   0.389728 0.142508 0.752886 0.212291
C27   C     C_1   0.610272 0.857492 0.247114 0.212291
C28   C     C_1   0.130750 0.762867 0.380369 0.215607
C29   C     C_1   0.869249 0.237133 0.619631 0.215607
C30   C     C_1   0.808299 0.515023 0.872705 0.210541
C31   C     C_1   0.191701 0.484977 0.127295 0.210541
C32   C     C_1   0.191701 0.127296 0.484975 0.210540
C33   C     C_1   0.808299 0.872704 0.515025 0.210540
C34   C     C_1   0.610272 0.247113 0.857492 0.212292
C35   C     C_R   0.456049 0.989913 0.450877 -0.015967
C36   C     C_1   0.389728 0.752887 0.142508 0.212292
C37   C     C_1   0.869249 0.619630 0.237134 0.215606
C38   C     C_1   0.130751 0.380370 0.762866 0.215606
C39   C     C_R   0.543951 0.010086 0.549123 -0.015967
C40   C     C_R   0.971220 0.460444 0.460444 -0.018792
C41   C     C_R   0.028780 0.539556 0.539556 -0.018792
C42   C     C_R   0.456049 0.450877 0.989913 -0.015967
C43   C     C_R   0.543951 0.549123 0.010087 -0.015967
C44   C     C_R   0.959093 0.180063 0.439197 0.902980
C45   C     C_R   0.683694 0.998228 0.569237 -0.016437
C46   C     C_R   0.040906 0.819937 0.560803 0.902980
C47   C     C_R   0.177734 0.430618 0.977450 0.900651
C48   C     C_R   0.822266 0.569382 0.022550 0.900650
C49   C     C_R   0.437595 0.962435 0.180061 0.897662
C50   C     C_R   0.562405 0.037565 0.819939 0.897662
C51   C     C_R   0.562405 0.819939 0.037565 0.897662
C52   C     C_R   0.437595 0.180061 0.962435 0.897662
C53   C     C_R   0.040906 0.560803 0.819936 0.902979
C54   C     C_R   0.959093 0.439197 0.180063 0.902979
C55   C     C_R   0.822266 0.022550 0.569382 0.900651
C56   C     C_R   0.936849 0.464317 0.329528 0.024163
C57   C     C_R   0.177734 0.977450 0.430618 0.900651
C58   C     C_R   0.411557 0.977637 0.403719 0.040731
C59   C     C_R   0.588443 0.022362 0.596280 0.040730
C60   C     C_R   0.948648 0.417999 0.418000 0.037707
C61   C     C_R   0.051352 0.582000 0.582000 0.037707
C62   C     C_R   0.411557 0.403720 0.977637 0.040731
C63   C     C_R   0.588443 0.596280 0.022363 0.040731
C64   C     C_R   0.273920 0.972877 0.393177 -0.171412
C65   C     C_R   0.726080 0.027123 0.606823 -0.171412
C66   C     C_R   0.929889 0.413953 0.281743 -0.162142
C67   C     C_R   0.063151 0.535683 0.670472 0.024163
C68   C     C_R   0.070111 0.586047 0.718257 -0.162142
C69   C     C_R   0.412094 0.281318 0.935864 -0.182976
C70   C     C_R   0.587906 0.718682 0.064136 -0.182976
C71   C     C_R   0.587905 0.064136 0.718682 -0.182976
C72   C     C_R   0.412094 0.935863 0.281318 -0.182976
C73   C     C_R   0.726080 0.606823 0.027123 -0.171412
C74   C     C_R   0.273919 0.393177 0.972877 -0.171412
C75   C     C_R   0.070111 0.718257 0.586047 -0.162141
C76   C     C_R   0.929889 0.281743 0.413953 -0.162141
C77   C     C_R   0.442940 0.079194 0.699339 -0.034890
C78   C     C_R   0.461440 0.327482 0.944147 0.000807
C79   C     C_R   0.557060 0.920806 0.300661 -0.034890
C80   C     C_R   0.071812 0.705429 0.439831 -0.033411
C81   C     C_R   0.928188 0.294571 0.560169 -0.033410
C82   C     C_R   0.731387 0.501532 0.952306 -0.025387
C83   C     C_R   0.268613 0.498467 0.047693 -0.025387
C84   C     C_R   0.268613 0.047694 0.498467 -0.025388
C85   C     C_R   0.731387 0.952305 0.501533 -0.025388
C86   C     C_R   0.557060 0.300661 0.920807 -0.034889
C87   C     C_R   0.442940 0.699339 0.079193 -0.034889
C88   C     C_R   0.928188 0.560168 0.294571 -0.033410
C89   C     C_R   0.538560 0.672518 0.055853 0.000808
C90   C     C_R   0.071812 0.439832 0.705429 -0.033410
C91   C     C_R   0.328263 0.923230 0.330999 -0.053049
C92   C     C_R   0.671737 0.076770 0.669000 -0.053049
C93   C     C_R   0.911764 0.330092 0.330092 -0.123661
C94   C     C_R   0.088236 0.669908 0.669908 -0.123661
C95   C     C_R   0.328263 0.330999 0.923230 -0.053048
C96   C     C_R   0.671737 0.669000 0.076770 -0.053049
C97   C     C_R   0.688159 0.959590 0.441904 -0.009009
C98   C     C_R   0.311840 0.040410 0.558095 -0.009009
C99   C     C_R   0.036777 0.400326 0.671666 -0.000147
C100  C     C_R   0.538560 0.055853 0.672518 0.000808
C101  C     C_R   0.963222 0.599674 0.328334 -0.000147
C102  C     C_R   0.399155 0.659671 0.056051 -0.009076
C103  C     C_R   0.600845 0.340329 0.943949 -0.009076
C104  C     C_R   0.600845 0.943947 0.340330 -0.009076
C105  C     C_R   0.399155 0.056052 0.659670 -0.009076
C106  C     C_R   0.311841 0.558096 0.040408 -0.009009
C107  C     C_R   0.688159 0.441903 0.959592 -0.009009
C108  C     C_R   0.963222 0.328334 0.599675 -0.000147
C109  C     C_R   0.036778 0.671666 0.400325 -0.000147
C110  C     C_R   0.736423 0.949575 0.353478 -0.059104
C111  C     C_R   0.461440 0.944147 0.327482 0.000808
C112  C     C_R   0.263577 0.050425 0.646521 -0.059104
C113  C     C_R   0.021023 0.312456 0.719790 -0.064716
C114  C     C_R   0.978977 0.687544 0.280210 -0.064716
C115  C     C_R   0.306937 0.697866 0.057691 -0.065446
C116  C     C_R   0.693063 0.302134 0.942309 -0.065446
C117  C     C_R   0.693064 0.942307 0.302135 -0.065446
C118  C     C_R   0.306936 0.057693 0.697865 -0.065446
C119  C     C_R   0.263577 0.646523 0.050423 -0.059104
C120  C     C_R   0.736423 0.353477 0.949577 -0.059104
C121  C     C_R   0.978975 0.280211 0.687545 -0.064716
C122  C     C_R   0.683694 0.569236 0.998229 -0.016437
C123  C     C_R   0.021024 0.719789 0.312455 -0.064716
C124  C     C_R   0.550206 0.972176 0.420013 0.016416
C125  C     C_R   0.449794 0.027823 0.579987 0.016416
C126  C     C_R   0.984632 0.412658 0.548665 0.018192
C127  C     C_R   0.015368 0.587342 0.451335 0.018192
C128  C     C_R   0.406065 0.530154 0.018540 0.012886
C129  C     C_R   0.593935 0.469846 0.981460 0.012885
C130  C     C_R   0.593935 0.981459 0.469847 0.012885
C131  C     C_R   0.406065 0.018540 0.530153 0.012885
C132  C     C_R   0.449794 0.579988 0.027823 0.016416
N1    N     N_1   0.329328 0.752245 0.389401 -0.195380
N2    N     N_1   0.935914 0.128322 0.794295 -0.150196
N3    N     N_1   0.891726 0.274305 0.983269 -0.172327
N4    N     N_1   0.108274 0.725695 0.016732 -0.172327
N5    N     N_1   0.108271 0.016738 0.725693 -0.172329
N6    N     N_1   0.891728 0.983263 0.274307 -0.172328
N7    N     N_1   0.774962 0.128941 0.953351 -0.154991
N8    N     N_1   0.225037 0.871059 0.046650 -0.154991
N9    N     N_1   0.935918 0.794292 0.128320 -0.150196
N10   N     N_1   0.064081 0.205708 0.871681 -0.150196
N11   N     N_1   0.346969 0.192198 0.796620 -0.168643
N12   N     N_1   0.670672 0.247755 0.610599 -0.195380
N13   N     N_1   0.653031 0.807802 0.203379 -0.168642
N14   N     N_1   0.176126 0.810359 0.331677 -0.152332
N15   N     N_1   0.823874 0.189641 0.668323 -0.152332
N16   N     N_1   0.868103 0.526850 0.807328 -0.194915
N17   N     N_1   0.131897 0.473149 0.192672 -0.194915
N18   N     N_1   0.131897 0.192672 0.473147 -0.194915
N19   N     N_1   0.868103 0.807328 0.526852 -0.194915
N20   N     N_1   0.653032 0.203380 0.807802 -0.168643
N21   N     N_1   0.346968 0.796620 0.192198 -0.168643
N22   N     N_1   0.823873 0.668322 0.189642 -0.152332
N23   N     N_1   0.845044 0.264330 0.264331 -0.174067
N24   N     N_1   0.176127 0.331678 0.810357 -0.152332
N25   N     N_1   0.154955 0.735669 0.735669 -0.174067
N26   N     N_1   0.329329 0.389402 0.752244 -0.195380
N27   N     N_1   0.670670 0.610598 0.247755 -0.195380
N28   N     N_1   0.225036 0.046654 0.871058 -0.154990
N29   N     N_1   0.774964 0.953346 0.128942 -0.154990
N30   N     N_1   0.064085 0.871679 0.205705 -0.150196
O1    O     O_R   0.982940 0.138950 0.510160 -0.621356
O2    O     O_R   0.982940 0.510160 0.138950 -0.621356
O3    O     O_R   0.861050 0.017060 0.489840 -0.626316
O4    O     O_R   0.138950 0.982940 0.510160 -0.626316
O5    O     O_R   0.867700 0.025880 0.612340 -0.604259
O6    O     O_R   0.132300 0.974120 0.387660 -0.604259
O7    O     O_R   0.025880 0.612340 0.867700 -0.609911
O8    O     O_R   0.974120 0.387660 0.132300 -0.609911
O9    O     O_R   0.612340 0.867700 0.025880 -0.595326
O10   O     O_R   0.387660 0.132300 0.974120 -0.595326
O11   O     O_R   0.387660 0.974120 0.132300 -0.595326
O12   O     O_R   0.017060 0.861050 0.489840 -0.621356
O13   O     O_R   0.612340 0.025880 0.867700 -0.595326
O14   O     O_R   0.132300 0.387660 0.974120 -0.604259
O15   O     O_R   0.867700 0.612340 0.025880 -0.604258
O16   O     O_R   0.974120 0.132300 0.387660 -0.609911
O17   O     O_R   0.025880 0.867700 0.612340 -0.609911
O18   O     O_R   0.138950 0.510160 0.982940 -0.626316
O19   O     O_R   0.861050 0.489840 0.017060 -0.626316
O20   O     O_R   0.510160 0.982940 0.138950 -0.626510
O21   O     O_R   0.489840 0.017060 0.861050 -0.626510
O22   O     O_R   0.489840 0.861050 0.017060 -0.626510
O23   O     O_R   0.510160 0.138950 0.982940 -0.626510
O24   O     O_R   0.017060 0.489840 0.861050 -0.621356
Zn1   Zn    Zn3+2 0.004880 0.004880 0.583590 1.033136
Zn2   Zn    Zn3+2 0.995120 0.995120 0.416410 1.033136
Zn3   Zn    Zn3+2 0.004880 0.583590 0.004880 1.033136
Zn4   Zn    Zn3+2 0.995120 0.416410 0.995120 1.033136
Zn5   Zn    Zn3+2 0.583590 0.004880 0.004880 1.031042
Zn6   Zn    Zn3+2 0.416410 0.995120 0.995120 1.031042

loop_
_geom_bond_atom_site_label_1
_geom_bond_atom_site_label_2
_ccdc_geom_bond_type
C11   C96   S    
C65   C92   A    
C43   C63   A    
C3    C42   A    
O24   Zn4   S    
O6    Zn2   S    
C22   N8    T    
C106  C119  A    
C41   C127  A    
C15   N30   T    
C45   C85   A    
C50   O21   A    
C38   N24   T    
C108  C121  A    
C53   O24   A    
C16   N2    T    
O21   Zn6   S    
C52   O10   A    
C49   O11   A    
C88   C101  A    
C2    C83   A    
C11   N27   T    
C57   O6    A    
C19   C112  S    
O10   Zn6   S    
C1    C84   A    
C15   C123  S    
C81   C108  A    
C35   C58   A    
C40   C60   A    
C35   C124  A    
C102  C132  A    
C97   C130  A    
C6    N1    T    
C27   C79   S    
O18   Zn3   S    
O13   Zn5   S    
C48   O19   A    
C31   N17   T    
C56   C88   A    
O17   Zn1   S    
C4    C41   A    
C6    C91   S    
C106  C128  A    
C31   C83   S    
C77   C100  A    
O1    Zn1   S    
C34   C86   S    
C20   N6    T    
C53   C68   S    
C8    N23   T    
C33   C85   S    
C7    N12   T    
C102  C115  A    
C37   C88   S    
C17   C120  S    
O12   Zn2   S    
C109  C127  A    
C71   C92   A    
C25   N10   T    
C27   N13   T    
C49   C72   S    
C80   C109  A    
C17   N3    T    
O22   Zn6   S    
C18   N4    T    
C52   C69   S    
C44   O1    A    
C55   O5    A    
C42   C62   A    
C47   O14   A    
C2    C74   A    
C42   C128  A    
O16   Zn2   S    
C78   C86   A    
C72   C111  A    
C40   C126  A    
C101  C114  A    
C63   C89   A    
C69   C78   A    
C107  C129  A    
C21   C116  S    
C28   C80   S    
C86   C103  A    
C74   C95   A    
C110  C117  A    
C46   C75   S    
C55   C65   S    
C36   N21   T    
O23   Zn5   S    
C48   O15   A    
C36   C87   S    
C32   C84   S    
C98   C131  A    
C5    C101  A    
C26   C77   S    
C98   C112  A    
C99   C113  A    
C124  C130  A    
O4    Zn1   S    
O3    Zn2   S    
C13   C75   A    
C43   C129  A    
O15   Zn3   S    
C61   C67   A    
C59   C100  A    
C33   N19   T    
C44   O16   A    
C72   C91   A    
C34   N20   T    
O5    Zn1   S    
C24   C76   A    
C57   O4    A    
C67   C90   A    
C68   C94   A    
C41   C61   A    
C56   C60   A    
C50   O13   A    
C30   C82   S    
C70   C96   A    
C24   C81   A    
C29   C81   S    
C47   O18   A    
C4    C126  A    
C25   C113  S    
C76   C93   A    
C87   C102  A    
O19   Zn4   S    
C125  C131  A    
O14   Zn4   S    
C9    N25   T    
C19   N5    T    
C14   C117  S    
C39   C59   A    
C5    C127  A    
C46   O12   A    
O9    Zn5   S    
C50   C71   S    
C38   C90   S    
C82   C107  A    
C12   N28   T    
C44   C76   S    
C66   C93   A    
C12   C118  S    
C114  C123  A    
C128  C132  A    
C67   C68   A    
C51   C70   S    
C51   O22   A    
C115  C119  A    
C87   C89   A    
C45   C65   A    
C48   C73   S    
C20   C110  S    
C105  C118  A    
C5    C40   A    
C70   C89   A    
O20   Zn5   S    
C55   O3    A    
C26   N11   T    
C1    C64   A    
C35   C131  A    
C90   C99   A    
C63   C122  A    
C53   O7    A    
C39   C125  A    
C57   C64   S    
C104  C117  A    
C3    C103  A    
C16   C121  S    
C10   N26   T    
C45   C59   A    
C3    C129  A    
C37   N22   T    
C62   C78   A    
C109  C123  A    
C8    C93   S    
C47   C74   S    
C69   C95   A    
C32   N18   T    
C29   N15   T    
C58   C111  A    
C30   N16   T    
C54   C66   S    
C39   C130  A    
C105  C125  A    
C113  C121  A    
C71   C100  A    
O8    Zn4   S    
O11   Zn6   S    
C28   N14   T    
C73   C96   A    
C83   C106  A    
C79   C111  A    
C108  C126  A    
C14   N29   T    
C77   C105  A    
C103  C116  A    
C84   C98   A    
C1    C58   A    
C46   O17   A    
C23   C114  S    
C112  C118  A    
C97   C110  A    
C107  C120  A    
C22   C115  S    
C10   C95   S    
C56   C66   A    
C7    C92   S    
C18   C119  S    
C51   O9    A    
C43   C132  A    
O7    Zn3   S    
C79   C104  A    
C13   C80   A    
C85   C97   A    
C49   O20   A    
C116  C120  A    
C13   C61   A    
C73   C122  A    
C52   O23   A    
C4    C99   A    
C54   O8    A    
C21   N7    T    
C23   N9    T    
C24   C60   A    
C64   C91   A    
C54   O2    A    
C104  C124  A    
C2    C62   A    
C9    C94   S    
C82   C122  A    
O2    Zn3   S    
C75   C94   A    
