data_str_m9_o16_o24_f0_sra.sym.19
_audit_creation_date              2012-12-11T15:13:41-0500
_audit_creation_method            fapswitch 2.2
_symmetry_space_group_name_H-M    P1
_symmetry_Int_Tables_number       1
_space_group_crystal_system       triclinic
_cell_length_a                    6.946373
_cell_length_b                    13.486699
_cell_length_c                    20.133828
_cell_angle_alpha                 104.082483
_cell_angle_beta                  90.098665
_cell_angle_gamma                 90.454482
_cell_volume                      1829.45248887

loop_
_atom_site_label
_atom_site_type_symbol
_atom_type_description
_atom_site_fract_x
_atom_site_fract_y
_atom_site_fract_z
_atom_type_partial_charge
O1    O     O_R   0.506780 0.600060 0.449950 -0.547718
O2    O     O_R   0.179840 0.597110 0.589410 -0.544526
O3    O     O_R   0.004570 0.399940 0.550050 -0.544370
C1    C     C_R   0.348524 0.618759 0.616896 0.748773
O4    O     O_R   0.177380 0.612160 0.452890 -0.541843
O5    O     O_R   0.002100 0.415100 0.412560 -0.543083
C2    C     C_R   0.346255 0.639026 0.436381 0.688774
O6    O     O_R   0.509250 0.584900 0.587440 -0.545001
O7    O     O_3   0.337570 0.435330 0.486930 -0.363214
V1    V     V_3+5 0.064650 0.512000 0.502430 1.502033
O8    O     O_R   0.672090 0.402890 0.410590 -0.530361
C3    C     C_R   0.840511 0.381382 0.383064 0.802132
O9    O     O_R   0.674540 0.387840 0.547110 -0.531561
C4    C     C_R   0.842983 0.360883 0.563544 0.801388
V2    V     V_3+5 0.564040 0.488000 0.497570 1.538803
O10   O     O_3   0.840990 0.564670 0.513070 -0.383912
C5    C     C_R   0.842623 0.106251 0.607888 -0.196328
C6    C     C_R   0.849420 0.282964 0.602765 -0.204599
C7    C     C_R   0.844808 0.318822 0.933260 -0.377868
C8    C     C_R   0.820067 0.395226 0.898786 0.652769
C9    C     C_R   0.814722 0.371889 0.827363 0.554006
C10   C     C_R   0.842664 0.269688 0.788124 -0.125708
C11   C     C_R   0.858147 0.191245 0.824387 -0.102558
C12   C     C_R   0.848946 0.241373 0.714693 0.069596
C13   C     C_R   0.849515 0.135841 0.679848 -0.080977
C14   C     C_R   0.859103 0.060806 0.716932 0.607402
C15   C     C_R   0.867401 0.088202 0.787842 -0.213321
C16   C     C_R   0.859451 0.313519 0.674195 -0.223954
C17   C     C_R   0.838590 0.179392 0.569649 0.617595
C18   C     C_R   0.860237 0.217094 0.896933 -0.129467
H1    H     H_    0.877947 0.027131 0.813978 0.168017
C19   C     C_3   0.679481 0.220194 0.229221 0.617444
C20   C     C_3   0.779109 0.200636 0.292716 0.645214
C21   C     C_3   0.849506 0.311960 0.312388 -0.245141
C22   C     C_3   0.748558 0.332673 0.248714 -0.300408
C23   C     C_3   0.935144 0.300781 0.206500 -0.149928
C24   C     C_3   0.035993 0.280908 0.270932 -0.051754
C25   C     C_3   0.964328 0.168029 0.251101 -0.227710
C26   C     C_3   0.863492 0.188725 0.187421 -0.228657
H2    H     H_    0.051219 0.099653 0.251751 0.205025
C27   C     C_3   0.538587 0.723355 0.730697 -0.055284
C28   C     C_3   0.460835 0.834461 0.749796 -0.252404
C29   C     C_3   0.357086 0.811866 0.812435 -0.255379
C30   C     C_3   0.433035 0.702132 0.793259 0.659988
C31   C     C_3   0.251138 0.665307 0.749781 -0.279234
C32   C     C_3   0.177406 0.776331 0.768489 0.662282
C33   C     C_3   0.278038 0.798967 0.705443 -0.177260
C34   C     C_3   0.355499 0.688602 0.687427 -0.229126
C35   C     C_R   0.336135 0.892947 0.391876 -0.032399
C36   C     C_R   0.353552 0.716643 0.397004 -0.068263
C37   C     C_R   0.346902 0.680624 0.066528 -0.196445
C38   C     C_R   0.326225 0.603794 0.100957 -0.126181
C39   C     C_R   0.320287 0.626853 0.172294 0.608261
C40   C     C_R   0.342709 0.729646 0.211655 -0.038963
C41   C     C_R   0.353013 0.808449 0.175456 -0.103121
C42   C     C_R   0.348872 0.758054 0.285091 0.017604
C43   C     C_R   0.343391 0.863525 0.319944 -0.022348
C44   C     C_R   0.346766 0.938725 0.282912 0.654116
C45   C     C_R   0.355987 0.911640 0.212043 -0.254169
C46   C     C_R   0.364411 0.686215 0.325622 -0.125927
C47   C     C_R   0.336962 0.819723 0.430006 -0.181800
C48   C     C_R   0.356786 0.782675 0.102919 -0.063560
O11   O     O_R   0.203580 0.914920 0.912610 -0.523840
O12   O     O_R   0.535710 0.887810 0.047120 -0.535616
O13   O     O_R   0.710730 0.084950 0.087430 -0.524418
C49   C     C_R   0.366792 0.861086 0.063817 0.724467
O14   O     O_R   0.533010 0.902850 0.910600 -0.524235
O15   O     O_R   0.708010 0.100090 0.949930 -0.548948
C50   C     C_R   0.364280 0.881296 0.883093 0.768713
O16   O     O_R   0.206300 0.899780 0.050100 -0.544882
O17   O     O_3   0.375170 0.064580 0.013100 -0.375372
V3    V     V_3+5 0.648200 0.988020 0.997570 1.577561
O18   O     O_R   0.038030 0.112330 0.952840 -0.548235
C51   C     C_R   0.869446 0.138805 0.936112 0.728529
O19   O     O_R   0.040730 0.097300 0.089360 -0.535137
C52   C     C_R   0.872292 0.118824 0.116886 0.737837
V4    V     V_3+5 0.148780 0.012220 0.002360 1.538969
O20   O     O_3   0.871930 0.935430 0.986900 -0.358826
F1    F     F_    0.828188 0.149176 0.500290 -0.637683
F2    F     F_    0.494685 0.188150 0.208325 -0.662709
H3    H     H_    0.658590 0.400032 0.247850 0.177270
H4    H     H_    0.000516 0.341886 0.170474 0.185061
H5    H     H_    0.183977 0.306479 0.288353 0.199144
H6    H     H_    0.546264 0.904512 0.750296 0.205595
H7    H     H_    0.688047 0.700354 0.715049 0.196388
F3    F     F_    0.513186 0.652554 0.839058 -0.593658
H8    H     H_    0.164906 0.595699 0.749961 0.174683
F4    F     F_    0.991059 0.804298 0.788135 -0.654937
F5    F     F_    0.864155 0.959991 0.684389 -0.698779
H9    H     H_    0.212685 0.838768 0.668849 0.185060
H10   H     H_    0.326968 0.843467 0.485309 0.124132
F6    F     F_    0.344269 0.039504 0.315527 -0.620127
H11   H     H_    0.328355 0.972778 0.418891 0.203470
H12   H     H_    0.388899 0.606300 0.303980 0.182179
H13   H     H_    0.349386 0.660624 0.011031 0.187902
F7    F     F_    0.277336 0.547803 0.200353 -0.724643
H14   H     H_    0.310109 0.525274 0.071879 0.166693
H15   H     H_    0.361889 0.972959 0.185962 0.175813
H16   H     H_    0.839557 0.026228 0.580954 0.199171
H17   H     H_    0.880729 0.393908 0.695922 0.205870
H18   H     H_    0.845570 0.338668 0.988770 0.164531
F8    F     F_    0.766636 0.449585 0.798937 -0.634336
F9    F     F_    0.794642 0.493032 0.935140 -0.610940
F10   F     F_    0.697793 0.149385 0.337521 -0.577107

loop_
_geom_bond_atom_site_label_1
_geom_bond_atom_site_label_2
_ccdc_geom_bond_type
C41   C45   A    
C20   F10   S    
C5    C17   A    
C27   C28   S    
C4    C6    S    
C7    C8    A    
C1    O6    A    
C22   H3    S    
C8    F9    S    
V4    O20   S    
C38   C39   A    
C14   F5    S    
C14   C15   A    
O13   C52   A    
C23   C24   S    
C31   H8    S    
C21   C22   S    
O5    C3    A    
C25   C26   S    
C18   C51   S    
O15   C51   A    
V2    O10   S    
C21   C24   S    
C41   C48   A    
C38   H14   S    
C35   C43   A    
C42   C43   A    
O14   V3    S    
O18   C51   A    
C19   C26   S    
V3    O20   S    
C32   C33   S    
O8    V2    S    
O11   C50   A    
C23   H4    S    
O1    V2    S    
C11   C15   A    
O7    V1    S    
C16   H17   S    
O11   V4    S    
C29   C50   S    
O9    C4    A    
C39   F7    S    
C37   C48   A    
C30   F3    S    
C32   F4    S    
C40   C42   A    
C35   C47   A    
C48   C49   S    
C15   H1    S    
C37   C38   A    
C11   C18   A    
C28   H6    S    
C12   C13   A    
O4    C2    A    
C44   C45   A    
C31   C32   S    
C42   C46   A    
O14   C50   A    
C22   C23   S    
O12   C49   A    
O2    C1    A    
O19   C52   A    
C19   C22   S    
C24   C25   S    
C19   F2    S    
C5    H16   S    
C33   C34   S    
C17   F1    S    
O15   V3    S    
C20   C21   S    
C6    C16   A    
C6    C17   A    
C26   C52   S    
O19   V4    S    
O3    C4    A    
C9    F8    S    
O6    V2    S    
O9    V2    S    
C29   C30   S    
C33   H9    S    
C10   C12   A    
C28   C29   S    
C3    C21   S    
O2    V1    S    
O17   V4    S    
C30   C31   S    
C1    C34   S    
C31   C34   S    
C45   H15   S    
C40   C41   A    
O1    C2    A    
C23   C26   S    
C12   C16   A    
C2    C36   S    
O5    V1    S    
O8    C3    A    
C39   C40   A    
O13   V3    S    
C27   H7    S    
C20   C25   S    
C36   C46   A    
C19   C20   S    
C13   C14   A    
C5    C13   A    
O17   V3    S    
O3    V1    S    
V1    O10   S    
C25   H2    S    
C7    H18   S    
C43   C44   A    
C49   O16   A    
C27   C30   S    
C27   C34   S    
C28   C33   S    
O12   V3    S    
O7    V2    S    
C29   C32   S    
O4    V1    S    
C8    C9    A    
C36   C47   A    
O18   V4    S    
C10   C11   A    
C24   H5    S    
C35   H11   S    
C9    C10   A    
C7    C18   A    
C44   F6    S    
C47   H10   S    
C37   H13   S    
O16   V4    S    
C46   H12   S    
