data_str_m3_o14_o22_f0_pcu.sym.85
_audit_creation_date              2012-12-10T17:47:47-0500
_audit_creation_method            fapswitch 2.2
_symmetry_space_group_name_H-M    P1
_symmetry_Int_Tables_number       1
_space_group_crystal_system       triclinic
_cell_length_a                    10.63565
_cell_length_b                    10.652727
_cell_length_c                    9.92104
_cell_angle_alpha                 89.695774
_cell_angle_beta                  90.112092
_cell_angle_gamma                 91.479153
_cell_volume                      1123.64844572

loop_
_atom_site_label
_atom_site_type_symbol
_atom_type_description
_atom_site_fract_x
_atom_site_fract_y
_atom_site_fract_z
_atom_type_partial_charge
Br1   Br    Br    0.291270 0.856307 0.315817 -0.538056
Br2   Br    Br    0.126558 0.221637 0.505888 -0.631045
C1    C     C_R   0.505102 0.260974 0.500375 0.907294
C2    C     C_R   0.609326 0.067585 0.570845 0.098047
C3    C     C_R   0.513455 0.129048 0.500290 -0.157126
C4    C     C_R   0.257765 0.498890 0.500284 0.896405
C5    C     C_R   0.424096 0.064769 0.423358 -0.184646
C6    C     C_R   0.421741 0.936690 0.421463 0.261325
C7    C     C_R   0.511085 0.872341 0.497346 -0.192446
C8    C     C_R   0.334841 0.336195 0.140462 -0.159867
C9    C     C_R   0.253453 0.255484 0.070631 -0.187696
C10   C     C_R   0.253741 0.255168 0.931098 -0.181394
C11   C     C_R   0.335439 0.335552 0.860640 -0.150464
C12   C     C_3   0.878414 0.498407 0.501466 0.127721
C13   C     C_R   0.418818 0.419070 0.927998 0.159176
C14   C     C_R   0.418683 0.419258 0.072529 0.174273
C15   C     C_R   0.577867 0.577198 0.071187 -0.089066
C16   C     C_R   0.502226 0.739571 0.499408 0.922750
C17   C     C_R   0.577824 0.577184 0.928112 -0.108246
C18   C     C_R   0.742098 0.499657 0.500380 0.811836
C19   C     C_3   0.071198 0.497880 0.649043 -0.365272
C20   C     C_3   0.928406 0.496245 0.648789 -0.386475
C21   C     C_3   0.074990 0.616451 0.428973 -0.413592
C22   C     C_3   0.067986 0.378529 0.427240 0.077480
C23   C     C_3   0.930910 0.617613 0.429208 -0.419561
C24   C     C_3   0.121044 0.496936 0.501649 0.089320
C25   C     C_3   0.923315 0.380028 0.427322 -0.394743
C26   C     C_R   0.707467 0.133608 0.638865 -0.178107
C27   C     C_R   0.803336 0.069218 0.702910 -0.090839
C28   C     C_R   0.803693 0.938723 0.699691 -0.120678
C29   C     C_R   0.707947 0.872193 0.632841 -0.183047
C30   C     C_R   0.608863 0.935915 0.568443 0.069783
H1    H     H_    0.106639 0.583628 0.702232 0.183532
H2    H     H_    0.641530 0.640308 0.124624 0.144848
H3    H     H_    0.104331 0.415342 0.706932 0.208538
H4    H     H_    0.329222 0.330681 0.247299 0.210698
H5    H     H_    0.189896 0.192721 0.125345 0.183988
H6    H     H_    0.190340 0.192209 0.876895 0.176980
H7    H     H_    0.330406 0.329479 0.753785 0.224802
H8    H     H_    0.641456 0.640292 0.874146 0.141691
H9    H     H_    0.892737 0.410311 0.702304 0.184463
H10   H     H_    0.895491 0.579375 0.705194 0.172944
H11   H     H_    0.112477 0.701754 0.481173 0.217338
H12   H     H_    0.888819 0.379642 0.321284 0.167441
H13   H     H_    0.898835 0.703327 0.481308 0.177184
H14   H     H_    0.100844 0.380387 0.320791 0.134687
H15   H     H_    0.883164 0.294226 0.476856 0.195169
H16   H     H_    0.109168 0.619692 0.322986 0.216238
H17   H     H_    0.896095 0.621659 0.323395 0.189169
H18   H     H_    0.353903 0.114708 0.366367 0.200931
H19   H     H_    0.712812 0.234970 0.641056 0.142271
H20   H     H_    0.878397 0.120849 0.753695 0.148201
H21   H     H_    0.879078 0.888831 0.747926 0.136396
H22   H     H_    0.714381 0.771186 0.629919 0.134321
N1    N     N_R   0.498810 0.498800 0.142780 -0.119032
N2    N     N_R   0.498760 0.498720 0.857170 -0.123977
O1    O     O_R   0.500000 0.316780 0.614690 -0.634220
O2    O     O_R   0.499990 0.316750 0.385360 -0.636219
O3    O     O_R   0.314800 0.499990 0.614670 -0.638660
O4    O     O_R   0.314790 0.499970 0.385330 -0.631580
O5    O     O_R   0.500010 0.683250 0.614640 -0.617828
O6    O     O_R   0.500000 0.683220 0.385310 -0.577669
O7    O     O_R   0.685210 0.500030 0.614670 -0.644624
O8    O     O_R   0.685200 0.500010 0.385330 -0.626937
Zn1   Zn    Zn3+2 0.500010 0.500020 0.653130 0.935626
Zn2   Zn    Zn3+2 0.499990 0.499980 0.346870 0.960245

loop_
_geom_bond_atom_site_label_1
_geom_bond_atom_site_label_2
_ccdc_geom_bond_type
C17   N2    A    
C18   O8    A    
C8    H4    S    
C9    C10   A    
O7    Zn1   S    
C16   O5    A    
C27   C28   A    
C19   H3    S    
O5    Zn1   S    
C12   C25   S    
Br1   C6    S    
C15   N1    A    
C29   C30   A    
C22   C25   S    
C19   C24   S    
C22   H14   S    
C13   N2    A    
C12   C20   S    
C18   O7    A    
C11   C13   A    
C6    C7    A    
C14   N1    A    
O4    Zn2   S    
C5    C6    A    
C12   C23   S    
C2    C30   A    
C19   C20   S    
O3    Zn1   S    
C10   H6    S    
C4    C24   S    
C1    O1    A    
C26   C27   A    
C2    C26   A    
C22   C24   S    
C8    C9    A    
C21   C23   S    
C29   H22   S    
Br2   C22   S    
C28   C29   A    
C28   H21   S    
C23   H17   S    
C11   H7    S    
C20   H9    S    
C19   H1    S    
C15   H2    S    
O6    Zn2   S    
C23   H13   S    
C25   H15   S    
N2    Zn1   S    
C1    O2    A    
C4    O4    A    
C7    C16   S    
N1    Zn2   S    
C21   H11   S    
C10   C11   A    
C12   C18   S    
C9    H5    S    
C17   H8    S    
C21   C24   S    
C20   H10   S    
C3    C5    A    
C16   O6    A    
C8    C14   A    
C21   H16   S    
C7    C30   A    
C15   C17   A    
C26   H19   S    
C25   H12   S    
C4    O3    A    
O2    Zn2   S    
C13   C14   A    
C5    H18   S    
O1    Zn1   S    
C2    C3    A    
C1    C3    S    
C27   H20   S    
O8    Zn2   S    
