data_str_m9_o18_o18_f0_sra.sym.20
_audit_creation_date              2012-12-11T15:26:34-0500
_audit_creation_method            fapswitch 2.2
_symmetry_space_group_name_H-M    P1
_symmetry_Int_Tables_number       1
_space_group_crystal_system       triclinic
_cell_length_a                    7.258142
_cell_length_b                    12.614718
_cell_length_c                    28.926767
_cell_angle_alpha                 90.000025
_cell_angle_beta                  90.000419
_cell_angle_gamma                 89.999937
_cell_volume                      2648.51785081

loop_
_atom_site_label
_atom_site_type_symbol
_atom_type_description
_atom_site_fract_x
_atom_site_fract_y
_atom_site_fract_z
_atom_type_partial_charge
O1    O     O_R   0.647170 0.849180 0.201220 -0.540426
O2    O     O_R   0.352830 0.150820 0.798780 -0.540426
O3    O     O_R   0.352830 0.150820 0.701220 -0.540427
O4    O     O_R   0.647170 0.849180 0.298780 -0.540426
O5    O     O_R   0.147170 0.650820 0.298780 -0.540426
O6    O     O_R   0.852830 0.349180 0.701220 -0.540427
O7    O     O_R   0.852830 0.349180 0.798780 -0.540426
O8    O     O_R   0.147170 0.650820 0.201220 -0.540426
O9    O     O_R   0.317430 0.862210 0.298450 -0.542256
O10   O     O_R   0.682570 0.137790 0.701550 -0.542256
O11   O     O_R   0.682570 0.137790 0.798450 -0.542256
O12   O     O_R   0.317430 0.862210 0.201550 -0.542256
O13   O     O_R   0.817430 0.637790 0.201550 -0.542256
O14   O     O_R   0.182570 0.362210 0.798450 -0.542256
O15   O     O_R   0.182570 0.362210 0.701550 -0.542255
O16   O     O_R   0.817430 0.637790 0.298450 -0.542256
C1    C     C_R   0.485746 0.886141 0.313296 0.676465
C2    C     C_R   0.514254 0.113861 0.686703 0.676467
C3    C     C_R   0.514255 0.113860 0.813297 0.676466
C4    C     C_R   0.485745 0.886140 0.186703 0.676465
C5    C     C_R   0.985745 0.613860 0.186703 0.676465
C6    C     C_R   0.014255 0.386140 0.813297 0.676466
C7    C     C_R   0.014254 0.386139 0.686703 0.676466
C8    C     C_R   0.985746 0.613859 0.313296 0.676465
H1    H     H_    0.022021 0.598143 0.693342 0.101429
H2    H     H_    0.978025 0.401853 0.306654 0.101428
H3    H     H_    0.977983 0.401855 0.193344 0.101428
H4    H     H_    0.022021 0.598144 0.806656 0.101429
H5    H     H_    0.522017 0.901856 0.806656 0.101429
H6    H     H_    0.477985 0.098145 0.193344 0.101429
H7    H     H_    0.478019 0.098147 0.306654 0.101428
H8    H     H_    0.522011 0.901856 0.693343 0.101429
H9    H     H_    0.967852 0.275431 0.369166 0.138845
H10   H     H_    0.032221 0.724560 0.630830 0.138847
H11   H     H_    0.032211 0.724563 0.869169 0.138846
H12   H     H_    0.967796 0.275436 0.130832 0.138846
H13   H     H_    0.467797 0.224564 0.130832 0.138846
H14   H     H_    0.532208 0.775437 0.869169 0.138846
H15   H     H_    0.532211 0.775439 0.630830 0.138847
H16   H     H_    0.467847 0.224569 0.369166 0.138845
H17   H     H_    0.997599 0.340609 0.598984 0.091528
H18   H     H_    0.002357 0.659385 0.401017 0.091527
H19   H     H_    0.002391 0.659386 0.098984 0.091527
H20   H     H_    0.997604 0.340613 0.901016 0.091527
H21   H     H_    0.497609 0.159387 0.901016 0.091527
H22   H     H_    0.502389 0.840613 0.098984 0.091527
H23   H     H_    0.502361 0.840614 0.401017 0.091527
H24   H     H_    0.497612 0.159392 0.598984 0.091527
O17   O     O_3   0.480630 0.680630 0.250000 -0.381047
O18   O     O_3   0.519370 0.319370 0.750000 -0.381048
O19   O     O_3   0.980630 0.819370 0.250000 -0.381047
O20   O     O_3   0.019370 0.180630 0.750000 -0.381047
V1    V     V_3+5 0.205800 0.762860 0.250000 1.430080
V2    V     V_3+5 0.794200 0.237140 0.750000 1.430079
V3    V     V_3+5 0.705800 0.737140 0.250000 1.430079
V4    V     V_3+5 0.294200 0.262860 0.750000 1.430079
H25   H     H_    0.938853 0.296616 0.532857 0.136614
H26   H     H_    0.061232 0.703365 0.467140 0.136614
H27   H     H_    0.061188 0.703374 0.032859 0.136613
H28   H     H_    0.938818 0.296624 0.967141 0.136614
H29   H     H_    0.438812 0.203375 0.967141 0.136615
H30   H     H_    0.561196 0.796627 0.032859 0.136615
H31   H     H_    0.561236 0.796635 0.467140 0.136612
H32   H     H_    0.438847 0.203383 0.532857 0.136615
C9    C     C_R   0.992514 0.538114 0.351230 -0.014661
C10   C     C_R   0.007490 0.461882 0.648768 -0.014663
C11   C     C_R   0.007491 0.461884 0.851231 -0.014664
C12   C     C_R   0.992509 0.538115 0.148769 -0.014664
C13   C     C_R   0.492509 0.961884 0.148769 -0.014663
C14   C     C_R   0.507491 0.038116 0.851231 -0.014664
C15   C     C_R   0.507490 0.038118 0.648768 -0.014662
C16   C     C_R   0.492514 0.961886 0.351230 -0.014661
C17   C     C_R   0.974442 0.358540 0.378192 -0.174217
C18   C     C_R   0.025610 0.641452 0.621804 -0.174217
C19   C     C_R   0.025602 0.641455 0.878195 -0.174211
C20   C     C_R   0.974402 0.358544 0.121806 -0.174212
C21   C     C_R   0.474404 0.141456 0.121806 -0.174211
C22   C     C_R   0.525600 0.858545 0.878194 -0.174212
C23   C     C_R   0.525603 0.858548 0.621804 -0.174218
C24   C     C_R   0.474440 0.141461 0.378192 -0.174215
C25   C     C_R   0.982427 0.430337 0.341986 -0.175344
C26   C     C_R   0.017608 0.569658 0.658011 -0.175345
C27   C     C_R   0.017607 0.569660 0.841988 -0.175346
C28   C     C_R   0.982396 0.430339 0.158012 -0.175345
C29   C     C_R   0.482397 0.069661 0.158012 -0.175346
C30   C     C_R   0.517605 0.930340 0.841988 -0.175345
C31   C     C_R   0.517602 0.930341 0.658011 -0.175344
C32   C     C_R   0.482424 0.069664 0.341986 -0.175345
C33   C     C_R   0.999453 0.574622 0.396781 -0.205169
C34   C     C_R   0.000540 0.425371 0.603218 -0.205167
C35   C     C_R   0.000539 0.425375 0.896782 -0.205167
C36   C     C_R   0.999460 0.574625 0.103218 -0.205167
C37   C     C_R   0.499459 0.925375 0.103218 -0.205168
C38   C     C_R   0.500541 0.074625 0.896782 -0.205167
C39   C     C_R   0.500545 0.074630 0.603218 -0.205168
C40   C     C_R   0.499456 0.925377 0.396781 -0.205169
C41   C     C_R   0.995269 0.503249 0.434667 0.061559
C42   C     C_R   0.004757 0.496740 0.565331 0.061555
C43   C     C_R   0.004747 0.496745 0.934668 0.061555
C44   C     C_R   0.995255 0.503254 0.065332 0.061556
C45   C     C_R   0.495255 0.996746 0.065332 0.061555
C46   C     C_R   0.504747 0.003255 0.934668 0.061555
C47   C     C_R   0.504759 0.003260 0.565331 0.061556
C48   C     C_R   0.495271 0.996751 0.434667 0.061558
C49   C     C_R   0.975059 0.393397 0.424641 0.067905
C50   C     C_R   0.024987 0.606592 0.575355 0.067905
C51   C     C_R   0.024975 0.606596 0.924643 0.067903
C52   C     C_R   0.975029 0.393402 0.075357 0.067903
C53   C     C_R   0.475029 0.106597 0.075357 0.067904
C54   C     C_R   0.524975 0.893403 0.924643 0.067904
C55   C     C_R   0.524985 0.893408 0.575355 0.067905
C56   C     C_R   0.475059 0.106603 0.424642 0.067906
C57   C     C_R   0.007746 0.537683 0.481771 -0.013317
C58   C     C_R   0.992292 0.462304 0.518226 -0.013325
C59   C     C_R   0.992275 0.462311 0.981773 -0.013320
C60   C     C_R   0.007728 0.537688 0.018228 -0.013319
C61   C     C_R   0.507729 0.962312 0.018228 -0.013319
C62   C     C_R   0.492274 0.037689 0.981773 -0.013320
C63   C     C_R   0.492294 0.037695 0.518226 -0.013325
C64   C     C_R   0.507748 0.962317 0.481771 -0.013316
C65   C     C_R   0.963176 0.354777 0.506611 -0.239472
C66   C     C_R   0.036884 0.645208 0.493386 -0.239473
C67   C     C_R   0.036857 0.645215 0.006613 -0.239469
C68   C     C_R   0.963147 0.354784 0.993387 -0.239469
C69   C     C_R   0.463144 0.145216 0.993387 -0.239470
C70   C     C_R   0.536861 0.854785 0.006613 -0.239470
C71   C     C_R   0.536886 0.854792 0.493386 -0.239471
C72   C     C_R   0.463174 0.145223 0.506611 -0.239473
C73   C     C_R   0.957060 0.319465 0.460704 0.299478
C74   C     C_R   0.043002 0.680520 0.539292 0.299469
C75   C     C_R   0.042981 0.680527 0.960707 0.299466
C76   C     C_R   0.957024 0.319472 0.039293 0.299467
C77   C     C_R   0.457024 0.180528 0.039294 0.299468
C78   C     C_R   0.542982 0.819473 0.960707 0.299467
C79   C     C_R   0.543002 0.819479 0.539292 0.299467
C80   C     C_R   0.457059 0.180534 0.460705 0.299480
N1    N     N_2   0.927029 0.210149 0.449759 -0.521085
H33   H     H_    0.820105 0.195533 0.427293 0.268051
C81   C     C_3   0.956653 0.128411 0.483831 -0.562185
H34   H     H_    0.954541 0.050414 0.466189 0.206326
H35   H     H_    0.846061 0.129793 0.510211 0.202322
H36   H     H_    0.092151 0.138788 0.500783 0.213104
N2    N     N_2   0.073049 0.789835 0.550236 -0.521089
H37   H     H_    0.179979 0.804449 0.572701 0.268056
C82   C     C_3   0.043417 0.871574 0.516165 -0.562191
H38   H     H_    0.045536 0.949570 0.533807 0.206329
H39   H     H_    0.907915 0.861198 0.499216 0.213106
H40   H     H_    0.154000 0.870192 0.489783 0.202322
N3    N     N_2   0.073024 0.789842 0.949762 -0.521087
H41   H     H_    0.179954 0.804455 0.927298 0.268055
C83   C     C_3   0.043397 0.871580 0.983834 -0.562183
H42   H     H_    0.045529 0.949578 0.966192 0.206325
H43   H     H_    0.153975 0.870193 0.010218 0.202321
H44   H     H_    0.907889 0.861209 0.000781 0.213106
N4    N     N_2   0.926982 0.210157 0.050238 -0.521087
H45   H     H_    0.820053 0.195543 0.072703 0.268054
C84   C     C_3   0.956610 0.128418 0.016167 -0.562183
H46   H     H_    0.954479 0.050420 0.033808 0.206325
H47   H     H_    0.092117 0.138790 0.999219 0.213106
H48   H     H_    0.846030 0.129805 0.989783 0.202322
N5    N     N_2   0.426984 0.289843 0.050238 -0.521087
H49   H     H_    0.320054 0.304458 0.072702 0.268054
C85   C     C_3   0.456616 0.371582 0.016167 -0.562188
H50   H     H_    0.454497 0.449579 0.033809 0.206327
H51   H     H_    0.346033 0.370199 0.989784 0.202322
H52   H     H_    0.592119 0.361205 0.999218 0.213106
N6    N     N_2   0.573023 0.710158 0.949762 -0.521087
H53   H     H_    0.679952 0.695543 0.927298 0.268054
C86   C     C_3   0.543389 0.628420 0.983834 -0.562187
H54   H     H_    0.545509 0.550422 0.966192 0.206327
H55   H     H_    0.407886 0.638796 0.000782 0.213106
H56   H     H_    0.653972 0.629802 0.010216 0.202322
N7    N     N_2   0.573048 0.710165 0.550237 -0.521090
H57   H     H_    0.679977 0.695551 0.572701 0.268056
C87   C     C_3   0.543419 0.628426 0.516165 -0.562179
H58   H     H_    0.545545 0.550428 0.533807 0.206325
H59   H     H_    0.654001 0.629811 0.489782 0.202320
H60   H     H_    0.407913 0.638800 0.499217 0.213105
N8    N     N_2   0.427027 0.289850 0.449759 -0.521085
H61   H     H_    0.320101 0.304467 0.427294 0.268051
C88   C     C_3   0.456654 0.371588 0.483831 -0.562184
H62   H     H_    0.454544 0.449586 0.466189 0.206326
H63   H     H_    0.592152 0.361210 0.500783 0.213104
H64   H     H_    0.346062 0.370208 0.510212 0.202322

loop_
_geom_bond_atom_site_label_1
_geom_bond_atom_site_label_2
_ccdc_geom_bond_type
O14   V4    S    
C11   C27   A    
C84   H46   S    
H24   C39   S    
N4    C84   S    
C86   H54   S    
C85   H50   S    
C44   C60   A    
C19   C27   A    
C20   C28   A    
C23   C31   A    
N5    H49   S    
C64   C71   A    
C87   H59   S    
C88   H62   S    
C19   C51   A    
N1    C81   S    
C80   N8    S    
H11   C19   S    
C79   N7    S    
C7    C10   S    
O5    V1    S    
H3    C28   S    
C14   C38   A    
C71   C79   A    
C13   C37   A    
N3    C83   S    
C43   C59   A    
C81   H36   S    
C42   C58   A    
C15   C39   A    
C45   C53   A    
C59   C60   A    
N2    C82   S    
C76   N4    S    
C68   C76   A    
O3    C2    A    
C47   C55   A    
C83   H44   S    
H28   C68   S    
H12   C20   S    
N5    C85   S    
C58   C65   A    
C9    C25   A    
C57   C66   A    
C12   C36   A    
C39   C47   A    
H32   C72   S    
H23   C40   S    
H16   C24   S    
C59   C68   A    
C62   C69   A    
C61   C70   A    
O12   V1    S    
C46   C62   A    
C41   C49   A    
C63   C72   A    
C22   C30   A    
O15   C7    A    
H17   C34   S    
C21   C29   A    
C20   C52   A    
C24   C32   A    
H4    C27   S    
C86   H55   S    
O12   C4    A    
C56   C80   A    
H21   C38   S    
C17   C25   A    
C16   C32   A    
O20   V2    S    
C82   H38   S    
C87   H60   S    
N7    C87   S    
H27   C67   S    
C81   H34   S    
C44   C52   A    
H26   C66   S    
C82   H39   S    
C53   C77   A    
C12   C28   A    
N8    C88   S    
C85   H52   S    
N6    C86   S    
C88   H63   S    
C37   C45   A    
N6    H53   S    
C48   C56   A    
C49   C73   A    
H14   C22   S    
N7    H57   S    
H8    C31   S    
H13   C21   S    
O18   V4    S    
C33   C41   A    
O19   V1    S    
H15   C23   S    
C84   H47   S    
C60   C67   A    
C9    C33   A    
C18   C50   A    
O3    V4    S    
C17   C49   A    
C87   H58   S    
C83   H42   S    
O11   C3    A    
C67   C75   A    
C24   C56   A    
C11   C35   A    
O8    C5    A    
O13   C5    A    
C22   C54   A    
H6    C29   S    
C21   C53   A    
C74   N2    S    
H20   C35   S    
C38   C46   A    
H5    C30   S    
O11   V2    S    
C8    C9    S    
H10   C18   S    
C15   C31   A    
O4    C1    A    
H9    C17   S    
O6    V2    S    
H2    C25   S    
C40   C48   A    
O4    V3    S    
H1    C26   S    
C86   H56   S    
C4    C13   S    
C75   N3    S    
O9    V1    S    
C41   C57   A    
C14   C30   A    
C82   H40   S    
C13   C29   A    
C36   C44   A    
H30   C70   S    
C57   C58   A    
C18   C26   A    
C88   H64   S    
O9    C1    A    
C2    C15   S    
C50   C74   A    
C54   C78   A    
O1    C4    A    
H7    C32   S    
C85   H51   S    
O2    C3    A    
C47   C63   A    
C65   C73   A    
C77   N5    S    
O8    V1    S    
H29   C69   S    
C63   C64   A    
C84   H48   S    
O7    C6    A    
C43   C51   A    
N1    H33   S    
C69   C77   A    
H19   C36   S    
C42   C50   A    
C23   C55   A    
H18   C33   S    
C45   C61   A    
O15   V4    S    
O14   C6    A    
C51   C75   A    
C72   C80   A    
N2    H37   S    
O1    V3    S    
O16   V3    S    
C5    C12   S    
O17   V3    S    
C61   C62   A    
C81   H35   S    
C55   C79   A    
O5    C8    A    
O10   C2    A    
O6    C7    A    
C10   C34   A    
C34   C42   A    
C83   H43   S    
H22   C37   S    
O10   V2    S    
C6    C11   S    
C52   C76   A    
C46   C54   A    
H25   C65   S    
N8    H61   S    
C16   C40   A    
C73   N1    S    
C70   C78   A    
C1    C16   S    
O16   C8    A    
N4    H45   S    
C78   N6    S    
C3    C14   S    
O2    V4    S    
O7    V2    S    
O13   V3    S    
C35   C43   A    
N3    H41   S    
C66   C74   A    
H31   C71   S    
C10   C26   A    
C48   C64   A    
