data_str_m9_o11_o18_f0_sra.sym.17
_audit_creation_date              2013-03-05T15:42:07-0500
_audit_creation_method            fapswitch 2.2
_symmetry_space_group_name_H-M    P1
_symmetry_Int_Tables_number       1
_space_group_crystal_system       triclinic
_cell_length_a                    21.99672
_cell_length_b                    7.209746
_cell_length_c                    14.884162
_cell_angle_alpha                 90.110975
_cell_angle_beta                  106.851877
_cell_angle_gamma                 89.98748
_cell_volume                      2259.12065685

loop_
_atom_site_label
_atom_site_type_symbol
_atom_site_description
_atom_site_fract_x
_atom_site_fract_y
_atom_site_fract_z
_atom_type_partial_charge
O1    O     O_R   0.584770 0.505770 0.002090 -0.543656
O2    O     O_R   0.415230 0.005770 0.997910 -0.544549
O3    O     O_R   0.467060 0.173340 0.861950 -0.547824
O4    O     O_R   0.532940 0.673340 0.138050 -0.548242
C1    C     C_R   0.455277 0.343964 0.825929 0.812210
C2    C     C_R   0.544841 0.844195 0.174081 0.814718
O5    O     O_R   0.587510 0.175890 0.993210 -0.564653
O6    O     O_R   0.412490 0.675890 0.006790 -0.565270
O7    O     O_R   0.536540 0.008150 0.130100 -0.557319
O8    O     O_R   0.463460 0.508150 0.869900 -0.555472
C3    C     C_R   0.613232 0.344506 0.999614 0.816679
C4    C     C_R   0.386772 0.844503 0.000368 0.817390
O9    O     O_3   0.483140 0.340040 0.044760 -0.283062
O10   O     O_3   0.516860 0.840040 0.955240 -0.281451
V1    V     V_3+5 0.503130 0.064190 0.991700 1.186898
V2    V     V_3+5 0.496870 0.564190 0.008300 1.186116
C5    C     C_2   0.213407 0.734771 0.998201 -0.124718
C6    C     C_2   0.786682 0.234871 0.002136 -0.124198
C7    C     C_2   0.183530 0.890503 0.014711 0.212621
C8    C     C_2   0.816468 0.390315 0.985245 0.209864
H1    H     H_    0.185724 0.609438 0.975998 0.134508
H2    H     H_    0.814451 0.109967 0.024738 0.136569
C9    C     C_2   0.282882 0.718339 0.008846 -0.038364
C10   C     C_2   0.717210 0.218187 0.991461 -0.034258
C11   C     C_2   0.318351 0.859252 0.992296 -0.119145
C12   C     C_2   0.681640 0.359376 0.007615 -0.122625
H3    H     H_    0.304174 0.582119 0.025609 0.128570
H4    H     H_    0.696024 0.081643 0.975089 0.131021
H5    H     H_    0.296345 0.992194 0.969254 0.155351
H6    H     H_    0.703566 0.492725 0.030310 0.156707
C13   C     C_R   0.925492 0.887979 0.723273 -0.118151
C14   C     C_R   0.076004 0.389639 0.276235 -0.114559
C15   C     C_R   0.573496 0.849144 0.275652 -0.083341
C16   C     C_R   0.427300 0.349106 0.724301 -0.081888
C17   C     C_R   0.935345 0.940904 0.567033 0.423810
C18   C     C_R   0.069291 0.442390 0.434188 0.427800
C19   C     C_R   0.960055 0.952060 0.664725 -0.118700
C20   C     C_R   0.042353 0.451060 0.336894 -0.132987
C21   C     C_R   0.863288 0.822315 0.685089 0.095027
C22   C     C_R   0.139515 0.332204 0.311632 0.093519
C23   C     C_R   0.832173 0.848646 0.587396 -0.003764
C24   C     C_R   0.171160 0.352059 0.409558 -0.010249
C25   C     C_R   0.870559 0.889368 0.527484 -0.087738
C26   C     C_R   0.133197 0.383510 0.470740 -0.085481
C27   C     C_R   0.764632 0.840390 0.547227 0.004386
C28   C     C_R   0.238564 0.342769 0.449699 0.006184
C29   C     C_R   0.737850 0.830262 0.447597 -0.035764
C30   C     C_R   0.264771 0.318775 0.548745 -0.034535
C31   C     C_R   0.780235 0.820144 0.391582 0.309738
C32   C     C_R   0.221990 0.288272 0.602867 0.303821
C33   C     C_R   0.843497 0.872756 0.430128 -0.050823
C34   C     C_R   0.158418 0.339465 0.565917 -0.020237
C35   C     C_R   0.723071 0.856734 0.603435 -0.073059
C36   C     C_R   0.280386 0.372672 0.395000 -0.067782
C37   C     C_R   0.657877 0.839184 0.565806 -0.082795
C38   C     C_R   0.345721 0.361635 0.433473 -0.081301
C39   C     C_R   0.630841 0.827563 0.469188 0.055780
C40   C     C_R   0.372195 0.341858 0.529896 0.055758
C41   C     C_R   0.670046 0.836474 0.408512 0.065647
C42   C     C_R   0.332201 0.331589 0.589386 0.069802
C43   C     C_R   0.564460 0.817693 0.432501 -0.073339
C44   C     C_R   0.438571 0.343651 0.567924 -0.072533
C45   C     C_R   0.536102 0.822488 0.335902 -0.099070
C46   C     C_R   0.465967 0.342768 0.664806 -0.099659
C47   C     C_R   0.639476 0.863203 0.311812 -0.043553
C48   C     C_R   0.361241 0.348983 0.687047 -0.037310
H7    H     H_    0.871707 0.888080 0.382433 0.182548
H8    H     H_    0.127413 0.327625 0.610268 0.189518
H9    H     H_    0.665506 0.897320 0.262883 0.115890
H10   H     H_    0.333745 0.367190 0.735776 0.112454
H11   H     H_    0.484990 0.809513 0.308226 0.070714
H12   H     H_    0.517217 0.341449 0.693376 0.071571
H13   H     H_    0.628140 0.844815 0.612491 0.086234
H14   H     H_    0.375860 0.380144 0.388008 0.083169
H15   H     H_    0.008460 0.998886 0.695723 0.133106
H16   H     H_    0.994012 0.500025 0.308133 0.132015
H17   H     H_    0.739826 0.889556 0.677025 0.096489
H18   H     H_    0.263675 0.413005 0.322443 0.093504
H19   H     H_    0.534511 0.806421 0.478652 0.071884
H20   H     H_    0.469260 0.347748 0.522628 0.071692
O11   O     O_R   0.036450 0.233070 0.130130 -0.534227
O12   O     O_R   0.963550 0.733070 0.869870 -0.533045
O13   O     O_R   0.912470 0.560570 0.006790 -0.510199
O14   O     O_R   0.087530 0.060570 0.993210 -0.509210
C49   C     C_R   0.886394 0.392662 0.999494 0.768004
C50   C     C_R   0.113604 0.892670 0.000511 0.769658
O15   O     O_R   0.032920 0.562940 0.138050 -0.565113
O16   O     O_R   0.967080 0.062940 0.861950 -0.565506
O17   O     O_R   0.084790 0.730500 0.002090 -0.579925
O18   O     O_R   0.915210 0.230500 0.997910 -0.579962
C51   C     C_R   0.045506 0.394867 0.174591 0.847643
C52   C     C_R   0.954496 0.894437 0.825368 0.844601
O19   O     O_3   0.016820 0.396170 0.955260 -0.274197
O20   O     O_3   0.983180 0.896170 0.044740 -0.274938
V3    V     V_3+5 0.996880 0.672090 0.008300 1.221052
V4    V     V_3+5 0.003120 0.172090 0.991700 1.220544
N1    N     N_3   0.837309 0.707439 0.743945 -0.463475
H21   H     H_    0.820691 0.790766 0.789324 0.210434
H22   H     H_    0.801876 0.618870 0.704702 0.208479
N2    N     N_3   0.166536 0.230269 0.249273 -0.461156
H23   H     H_    0.182833 0.322708 0.207413 0.208247
H24   H     H_    0.202432 0.140284 0.285699 0.213419
N3    N     N_R   0.762445 0.738006 0.299493 0.073758
O21   O     O_R   0.729752 0.584722 0.284338 -0.367797
O22   O     O_R   0.786498 0.799380 0.234963 -0.348474
N4    N     N_R   0.239982 0.187637 0.689962 0.074402
O23   O     O_R   0.276223 0.042022 0.698679 -0.366354
O24   O     O_R   0.213217 0.224148 0.755356 -0.344901
N5    N     N_R   0.219395 0.051582 0.056777 0.072458
O25   O     O_R   0.202948 0.215760 0.022064 -0.356153
O26   O     O_R   0.264802 0.036143 0.135090 -0.397004
N6    N     N_R   0.780518 0.550588 0.942653 0.071496
O27   O     O_R   0.796881 0.715450 0.976828 -0.353943
O28   O     O_R   0.735255 0.533668 0.864239 -0.396798
N7    N     N_R   0.976615 0.987710 0.510805 0.109498
O29   O     O_R   0.021115 0.110344 0.541855 -0.346511
O30   O     O_R   0.980355 0.880794 0.442161 -0.323686
N8    N     N_R   0.031896 0.499899 0.494321 0.127031
O31   O     O_R   0.970529 0.477516 0.467446 -0.312262
O32   O     O_R   0.057469 0.596942 0.569645 -0.333751

loop_
_geom_bond_atom_site_label_1
_geom_bond_atom_site_label_2
_geom_bond_distance
_ccdc_geom_bond_type
C40   C44   1.404672 A    
O16   V4    2.020909 S    
O4    V2    2.020987 S    
O15   C51   1.325117 A    
C35   C37   1.385771 A    
O1    C3    1.325903 A    
C7    C50   1.490748 S    
O2    C4    1.326204 A    
C17   C25   1.424229 A    
C16   C48   1.397037 A    
C2    O7    1.338938 A    
N6    O28   1.301586 A    
N1    H21   1.045097 S    
C15   C47   1.397603 A    
C29   C31   1.421298 A    
C20   H16   1.084001 S    
O5    C3    1.332540 A    
C5    C9    1.494739 S    
C6    C10   1.494708 S    
C44   H20   1.084005 S    
C17   C19   1.399111 A    
O14   C50   1.330481 A    
N5    O26   1.301582 A    
O14   V4    2.017346 S    
C39   C41   1.419593 A    
C14   C51   1.466984 S    
N4    O23   1.301807 A    
C40   C42   1.419658 A    
N7    O29   1.299992 A    
O12   C52   1.326024 A    
C24   C28   1.430473 A    
C27   C29   1.429848 A    
C43   C45   1.392034 A    
N8    O31   1.301926 A    
C44   C46   1.392404 A    
C8    N6    1.440224 S    
O16   C52   1.326336 A    
C13   C21   1.402754 A    
N7    O30   1.300187 A    
O15   V3    2.023687 S    
C32   C34   1.395989 A    
C17   N7    1.442267 S    
C9    H3    1.085878 S    
C18   N8    1.440439 S    
C34   H8    1.081412 S    
O6    C4    1.332591 A    
C26   C34   1.400527 A    
C30   C32   1.422377 A    
C19   H15   1.084088 S    
C42   C48   1.413396 A    
O6    V2    2.017261 S    
C8    C49   1.490643 S    
C23   C25   1.425504 A    
C24   C26   1.420571 A    
N2    H24   1.044625 S    
N6    O27   1.301072 A    
N1    H22   1.044615 S    
C30   C42   1.433210 A    
C28   C30   1.429606 A    
C7    N5    1.440247 S    
C11   H5    1.084181 S    
C36   C38   1.386599 A    
C38   H14   1.084322 S    
C21   C23   1.429268 A    
O11   V4    2.024083 S    
C3    C12   1.478547 S    
C31   C33   1.394968 A    
C27   C35   1.411602 A    
C5    H1    1.085793 S    
C13   C19   1.391675 A    
C37   H13   1.084327 S    
O17   V3    2.007322 S    
C35   H17   1.075426 S    
C22   N2    1.439405 S    
C15   C45   1.395030 A    
O13   V3    2.017637 S    
C1    C16   1.459003 S    
C28   C36   1.410896 A    
C16   C46   1.395073 A    
N3    O22   1.301788 A    
O1    V2    2.006870 S    
C33   H7    1.075615 S    
C39   C43   1.404606 A    
O2    V1    2.007125 S    
O4    C2    1.337801 A    
O13   C49   1.330397 A    
C45   H11   1.083458 S    
C12   H6    1.084214 S    
O19   V4    1.758806 S    
C14   C20   1.394619 A    
C37   C39   1.390119 A    
C18   C26   1.417557 A    
O3    V1    2.023762 S    
O12   V3    2.025745 S    
C6    H2    1.085829 S    
C10   H4    1.085880 S    
C10   C12   1.346843 D    
C22   C24   1.428443 A    
O3    C1    1.337818 A    
C50   O17   1.333554 A    
C31   N3    1.438247 S    
C49   O18   1.333208 A    
O18   V4    2.007070 S    
C2    C15   1.459938 S    
C4    C11   1.478501 S    
C18   C20   1.398186 A    
O7    V1    2.017958 S    
C1    O8    1.338194 A    
O8    V2    2.016423 S    
N5    O25   1.301057 A    
C41   C47   1.414491 A    
C25   C33   1.402759 A    
C48   H10   1.078442 S    
N4    O24   1.301728 A    
C43   H19   1.084013 S    
C47   H9    1.077609 S    
O5    V1    2.017546 S    
N2    H23   1.045029 S    
C5    C7    1.358369 D    
C38   C40   1.391173 A    
C6    C8    1.358464 D    
C14   C22   1.405206 A    
O20   V3    1.756754 S    
N8    O32   1.301682 A    
C21   N1    1.439855 S    
C29   C41   1.435941 A    
O11   C51   1.326293 A    
C9    C11   1.346956 D    
C13   C52   1.468338 S    
O9    V2    1.759549 S    
N3    O21   1.301806 A    
C32   N4    1.438610 S    
C23   C27   1.432867 A    
O10   V1    1.757495 S    
C46   H12   1.083448 S    
C36   H18   1.075632 S    
