data_str_m4_o17_o17_f0_acs.sym.67
_audit_creation_date              2012-12-11T14:30:18-0500
_audit_creation_method            fapswitch 2.2
_symmetry_space_group_name_H-M    P1
_symmetry_Int_Tables_number       1
_space_group_crystal_system       triclinic
_cell_length_a                    12.666709
_cell_length_b                    12.666709
_cell_length_c                    27.04483
_cell_angle_alpha                 90.0
_cell_angle_beta                  90.000012
_cell_angle_gamma                 120.000219
_cell_volume                      3757.86795673

loop_
_atom_site_label
_atom_site_type_symbol
_atom_type_description
_atom_site_fract_x
_atom_site_fract_y
_atom_site_fract_z
_atom_type_partial_charge
C1    C     C_R   0.558498 0.456085 0.822332 0.541658
C2    C     C_R   0.456085 0.558497 0.177668 0.541657
C3    C     C_R   0.003747 0.310411 0.474340 0.386124
C4    C     C_R   0.306670 0.996264 0.025662 0.386124
C5    C     C_R   0.689589 0.693337 0.474340 0.386124
C6    C     C_R   0.310408 0.003740 0.525661 0.386124
C7    C     C_R   0.996249 0.306662 0.974340 0.386124
C8    C     C_R   0.693332 0.689593 0.525662 0.386124
C9    C     C_R   0.310413 0.003751 0.974340 0.386124
C10   C     C_R   0.996260 0.306668 0.525662 0.386124
C11   C     C_R   0.693340 0.689586 0.974340 0.386124
C12   C     C_R   0.441502 0.897587 0.322332 0.541656
C13   C     C_R   0.102413 0.543915 0.177668 0.541657
C14   C     C_R   0.993475 0.497921 0.974166 -0.010982
C15   C     C_R   0.504446 0.006524 0.525834 -0.010982
C16   C     C_R   0.502079 0.495553 0.974166 -0.010982
C17   C     C_R   0.993476 0.497922 0.525834 -0.010982
C18   C     C_R   0.504447 0.006526 0.974166 -0.010982
C19   C     C_R   0.502077 0.495554 0.525834 -0.010982
C20   C     C_R   0.497921 0.993475 0.474166 -0.010982
C21   C     C_R   0.897587 0.441502 0.677668 0.541657
C22   C     C_R   0.006524 0.504446 0.025834 -0.010982
C23   C     C_R   0.495553 0.502079 0.474166 -0.010982
C24   C     C_R   0.497923 0.993476 0.025834 -0.010982
C25   C     C_R   0.006525 0.504447 0.474166 -0.010982
C26   C     C_R   0.495554 0.502077 0.025834 -0.010982
C27   C     C_R   0.991339 0.688910 0.974364 -0.070309
C28   C     C_R   0.697575 0.008670 0.525636 -0.070309
C29   C     C_R   0.311089 0.302428 0.974364 -0.070307
C30   C     C_R   0.991330 0.688905 0.525636 -0.070310
C31   C     C_R   0.697571 0.008662 0.974364 -0.070310
C32   C     C_R   0.543915 0.102413 0.822332 0.541657
C33   C     C_R   0.311094 0.302423 0.525636 -0.070308
C34   C     C_R   0.688908 0.991334 0.474364 -0.070309
C35   C     C_R   0.008675 0.697578 0.025636 -0.070309
C36   C     C_R   0.302426 0.311092 0.474364 -0.070308
C37   C     C_R   0.688904 0.991326 0.025636 -0.070311
C38   C     C_R   0.008666 0.697573 0.474364 -0.070310
C39   C     C_R   0.302421 0.311096 0.025636 -0.070309
C40   C     C_R   0.960793 0.576727 0.897219 -0.121780
C41   C     C_R   0.615936 0.039211 0.602781 -0.121779
C42   C     C_R   0.423273 0.384065 0.897219 -0.121780
C43   C     C_R   0.558498 0.456085 0.677668 0.541658
C44   C     C_R   0.960788 0.576726 0.602781 -0.121779
C45   C     C_R   0.615934 0.039209 0.897219 -0.121780
C46   C     C_R   0.423274 0.384063 0.602781 -0.121778
C47   C     C_R   0.576726 0.960790 0.397219 -0.121779
C48   C     C_R   0.039213 0.615937 0.102781 -0.121778
C49   C     C_R   0.384064 0.423274 0.397219 -0.121779
C50   C     C_R   0.576725 0.960787 0.102781 -0.121778
C51   C     C_R   0.039210 0.615935 0.397219 -0.121779
C52   C     C_R   0.384062 0.423275 0.102781 -0.121778
C53   C     C_R   0.048262 0.523684 0.127994 -0.019541
C54   C     C_R   0.897587 0.441502 0.822332 0.541657
C55   C     C_R   0.475421 0.951738 0.372006 -0.019540
C56   C     C_R   0.476316 0.524577 0.127994 -0.019541
C57   C     C_R   0.048263 0.523684 0.372006 -0.019540
C58   C     C_R   0.475422 0.951738 0.127994 -0.019540
C59   C     C_R   0.476316 0.524579 0.372006 -0.019540
C60   C     C_R   0.523684 0.048262 0.627994 -0.019541
C61   C     C_R   0.951737 0.475421 0.872006 -0.019540
C62   C     C_R   0.524578 0.476316 0.627994 -0.019541
C63   C     C_R   0.523684 0.048264 0.872007 -0.019540
C64   C     C_R   0.951738 0.475422 0.627994 -0.019541
C65   C     C_R   0.543915 0.102413 0.677668 0.541657
C66   C     C_R   0.524579 0.476316 0.872007 -0.019540
C67   C     C_R   0.983397 0.589369 0.948299 0.009006
C68   C     C_R   0.605975 0.016607 0.551701 0.009006
C69   C     C_R   0.410631 0.394027 0.948299 0.009007
C70   C     C_R   0.983393 0.589368 0.551701 0.009007
C71   C     C_R   0.605973 0.016604 0.948299 0.009007
C72   C     C_R   0.410632 0.394025 0.551701 0.009007
C73   C     C_R   0.589368 0.983394 0.448299 0.009006
C74   C     C_R   0.016609 0.605976 0.051701 0.009006
C75   C     C_R   0.394026 0.410631 0.448299 0.009007
C76   C     C_R   0.456085 0.558498 0.322332 0.541658
C77   C     C_R   0.589367 0.983391 0.051701 0.009007
C78   C     C_R   0.016606 0.605974 0.448299 0.009007
C79   C     C_R   0.394024 0.410632 0.051701 0.009006
C80   C     C_R   0.973410 0.391490 0.897521 -0.100365
C81   C     C_R   0.418078 0.026584 0.602480 -0.100365
C82   C     C_R   0.608512 0.581920 0.897521 -0.100364
C83   C     C_R   0.973415 0.391494 0.602480 -0.100366
C84   C     C_R   0.418080 0.026591 0.897521 -0.100365
C85   C     C_R   0.608506 0.581922 0.602480 -0.100365
C86   C     C_R   0.391491 0.973413 0.397520 -0.100364
C87   C     C_R   0.441502 0.897587 0.177669 0.541658
C88   C     C_R   0.026582 0.418077 0.102480 -0.100365
C89   C     C_R   0.581921 0.608510 0.397520 -0.100365
C90   C     C_R   0.391495 0.973417 0.102481 -0.100366
C91   C     C_R   0.026588 0.418079 0.397520 -0.100365
C92   C     C_R   0.581924 0.608504 0.102481 -0.100366
C93   C     C_R   0.989576 0.399187 0.948466 -0.039755
C94   C     C_R   0.409609 0.010418 0.551535 -0.039754
C95   C     C_R   0.600814 0.590388 0.948466 -0.039755
C96   C     C_R   0.989582 0.399191 0.551535 -0.039755
C97   C     C_R   0.409612 0.010425 0.948466 -0.039756
C98   C     C_R   0.102413 0.543915 0.322332 0.541657
C99   C     C_R   0.600809 0.590391 0.551535 -0.039755
C100  C     C_R   0.399188 0.989578 0.448466 -0.039755
C101  C     C_R   0.010416 0.409608 0.051535 -0.039755
C102  C     C_R   0.590389 0.600812 0.448466 -0.039755
C103  C     C_R   0.399192 0.989584 0.051535 -0.039755
C104  C     C_R   0.010423 0.409610 0.448466 -0.039756
C105  C     C_R   0.590393 0.600807 0.051535 -0.039755
C106  C     C_R   0.003736 0.310406 0.025662 0.386124
C107  C     C_R   0.306664 0.996254 0.474339 0.386123
C108  C     C_R   0.689596 0.693329 0.025662 0.386124
Cr1   Cr    Cr6+3 0.487630 0.241180 0.750000 1.042040
Cr2   Cr    Cr6+3 0.753550 0.512370 0.750000 1.042040
Cr3   Cr    Cr6+3 0.758820 0.246450 0.750000 1.042039
Cr4   Cr    Cr6+3 0.241180 0.487630 0.250000 1.042040
Cr5   Cr    Cr6+3 0.512370 0.753550 0.250000 1.042040
Cr6   Cr    Cr6+3 0.246450 0.758820 0.250000 1.042040
F1    F     F_    0.006336 0.217892 0.049973 -0.617401
F2    F     F_    0.217901 0.006358 0.950029 -0.617404
F3    F     F_    0.993658 0.211553 0.549973 -0.617401
F4    F     F_    0.788458 0.782098 0.950029 -0.617403
F5    F     F_    0.211547 0.993649 0.450028 -0.617403
F6    F     F_    0.782111 0.788443 0.049974 -0.617399
F7    F     F_    0.006352 0.217899 0.450028 -0.617403
F8    F     F_    0.211556 0.993663 0.049974 -0.617400
F9    F     F_    0.782102 0.788454 0.450028 -0.617402
F10   F     F_    0.217895 0.006342 0.549972 -0.617402
F11   F     F_    0.993643 0.211544 0.950029 -0.617404
F12   F     F_    0.788447 0.782107 0.549973 -0.617401
H1    H     H_    0.055358 0.697479 0.122272 0.147368
H2    H     H_    0.697474 0.055349 0.877728 0.147366
H3    H     H_    0.944645 0.642123 0.622272 0.147367
H4    H     H_    0.357873 0.302526 0.877728 0.147366
H5    H     H_    0.015293 0.775560 0.044932 0.230021
H6    H     H_    0.760274 0.984720 0.455067 0.230021
H7    H     H_    0.224438 0.239731 0.044932 0.230020
H8    H     H_    0.015280 0.775554 0.455067 0.230020
H9    H     H_    0.760268 0.984708 0.044933 0.230018
H10   H     H_    0.224445 0.239724 0.455067 0.230021
H11   H     H_    0.775557 0.015286 0.544933 0.230020
H12   H     H_    0.642125 0.944649 0.377728 0.147366
H13   H     H_    0.984727 0.760277 0.955066 0.230021
H14   H     H_    0.239728 0.224441 0.544933 0.230020
H15   H     H_    0.775551 0.015274 0.955067 0.230020
H16   H     H_    0.984713 0.760271 0.544933 0.230019
H17   H     H_    0.239721 0.224449 0.955066 0.230021
H18   H     H_    0.032064 0.345890 0.121691 0.197847
H19   H     H_    0.313820 0.967928 0.378310 0.197848
H20   H     H_    0.654111 0.686173 0.121692 0.197847
H21   H     H_    0.032073 0.345893 0.378310 0.197847
H22   H     H_    0.313826 0.967935 0.121692 0.197848
H23   H     H_    0.302519 0.357878 0.122271 0.147368
H24   H     H_    0.654107 0.686181 0.378310 0.197847
H25   H     H_    0.345891 0.032067 0.621691 0.197847
H26   H     H_    0.967924 0.313818 0.878310 0.197848
H27   H     H_    0.686175 0.654109 0.621691 0.197847
H28   H     H_    0.345895 0.032078 0.878311 0.197847
H29   H     H_    0.967932 0.313824 0.621691 0.197848
H30   H     H_    0.686184 0.654105 0.878310 0.197848
H31   H     H_    0.055351 0.697476 0.377728 0.147366
H32   H     H_    0.642122 0.944642 0.122272 0.147368
H33   H     H_    0.302524 0.357874 0.377728 0.147366
H34   H     H_    0.697478 0.055355 0.622272 0.147367
H35   H     H_    0.944653 0.642127 0.877728 0.147366
H36   H     H_    0.357876 0.302521 0.622272 0.147367
O1    O     O_R   0.460870 0.120930 0.805240 -0.516115
O2    O     O_R   0.120930 0.460870 0.194760 -0.516115
O3    O     O_R   0.539130 0.660060 0.305240 -0.516115
O4    O     O_R   0.339940 0.879070 0.194760 -0.516115
O5    O     O_R   0.498910 0.350470 0.801870 -0.496281
O6    O     O_R   0.851560 0.501090 0.698130 -0.496281
O7    O     O_R   0.649530 0.148440 0.801870 -0.496281
O8    O     O_R   0.498910 0.350470 0.698130 -0.496281
O9    O     O_R   0.851560 0.501090 0.801870 -0.496281
O10   O     O_R   0.649530 0.148440 0.698130 -0.496281
O11   O     O_R   0.350470 0.498910 0.301870 -0.496281
O12   O     O_R   0.660060 0.539130 0.694760 -0.516115
O13   O     O_R   0.501090 0.851560 0.198130 -0.496282
O14   O     O_R   0.148440 0.649530 0.301870 -0.496281
O15   O     O_R   0.350470 0.498910 0.198130 -0.496281
O16   O     O_R   0.501090 0.851560 0.301870 -0.496281
O17   O     O_R   0.148440 0.649530 0.198130 -0.496281
O18   O     O_3   0.666667 0.333333 0.750000 -0.243077
O19   O     O_3   0.333333 0.666667 0.250000 -0.243078
O20   O     O_R   0.879070 0.339940 0.805240 -0.516115
O21   O     O_R   0.460870 0.120930 0.694760 -0.516115
O22   O     O_R   0.660060 0.539130 0.805240 -0.516115
O23   O     O_R   0.879070 0.339940 0.694760 -0.516115
O24   O     O_R   0.120930 0.460870 0.305240 -0.516115
O25   O     O_R   0.539130 0.660060 0.194760 -0.516114
O26   O     O_R   0.339940 0.879070 0.305240 -0.516114

loop_
_geom_bond_atom_site_label_1
_geom_bond_atom_site_label_2
_ccdc_geom_bond_type
C3    C104  A    
C12   O16   A    
C32   O7    A    
C4    C103  A    
C35   C74   A    
C89   C102  A    
C45   C71   A    
C108  F6    S    
C6    F10   S    
C91   C104  A    
C58   C87   S    
C15   C94   A    
C91   H21   S    
C88   C101  A    
C64   C83   A    
C44   C64   A    
C22   C101  A    
C46   C62   A    
C18   C24   A    
C84   C97   A    
C76   O11   A    
C28   C68   A    
C8    C99   A    
Cr2   O22   S    
Cr5   O3    S    
C43   O12   A    
C87   O4    A    
C83   H29   S    
C15   C68   A    
C33   H14   S    
C12   O26   A    
C32   O1    A    
C101  C106  A    
C33   C36   A    
Cr6   O26   S    
C30   C38   A    
Cr3   O10   S    
C59   C89   A    
C2    O25   A    
C21   C64   S    
C90   H22   S    
Cr1   O5    S    
C33   C72   A    
C84   H28   S    
C1    O22   A    
Cr5   O19   S    
C52   H23   S    
C6    C94   A    
C40   C67   A    
C6    C107  A    
C54   O20   A    
C44   C70   A    
C51   C57   A    
C18   C97   A    
C10   C96   A    
C52   C79   A    
C86   C100  A    
C14   C93   A    
C46   C72   A    
Cr5   O13   S    
C82   H30   S    
Cr2   O9    S    
Cr1   O21   S    
C31   C71   A    
Cr4   O11   S    
C34   H6    S    
C17   C70   A    
C19   C72   A    
C48   C53   A    
Cr2   O6    S    
C7    C93   A    
C36   H10   S    
C26   C105  A    
C107  F5    S    
C30   C70   A    
C43   O8    A    
Cr6   O4    S    
C41   C68   A    
C29   C69   A    
Cr2   O12   S    
C16   C26   A    
C15   C20   A    
Cr4   O2    S    
C62   C85   A    
Cr3   O23   S    
C16   C69   A    
C65   O10   A    
C92   H20   S    
C25   C78   A    
C50   C58   A    
C48   C74   A    
C42   C66   A    
C47   C73   A    
C37   H9    S    
Cr1   O1    S    
C63   C84   A    
C19   C99   A    
C38   C78   A    
C27   C35   A    
C44   H3    S    
C13   O17   A    
C37   C77   A    
C45   C63   A    
Cr3   O20   S    
C27   H13   S    
C40   C61   A    
C31   C37   A    
Cr3   O7    S    
C39   C79   A    
C31   H15   S    
C19   C23   A    
C13   C53   S    
C85   C99   A    
C36   C75   A    
C66   C82   A    
C41   H34   S    
C98   O14   A    
C60   C81   A    
C92   C105  A    
C20   C100  A    
Cr2   O18   S    
C14   C67   A    
C39   H7    S    
C29   C39   A    
C49   C75   A    
C1    C66   S    
C7    C106  A    
C4    F8    S    
C76   O3    A    
C42   H4    S    
C17   C96   A    
C85   H27   S    
C105  C108  A    
C7    F11   S    
C58   C90   A    
C8    F12   S    
C89   H24   S    
C2    O15   A    
C60   C65   S    
Cr3   O18   S    
C22   C74   A    
C86   H19   S    
C35   H5    S    
C11   C108  A    
Cr1   O8    S    
C13   O2    A    
C47   C55   A    
C65   O21   A    
C11   C95   A    
C18   C71   A    
C80   H26   S    
C5    F9    S    
C5    C102  A    
C100  C107  A    
C9    C97   A    
C82   C95   A    
C57   C91   A    
C9    F2    S    
C21   O6    A    
C54   O9    A    
C28   H11   S    
C41   C60   A    
C23   C75   A    
C50   H32   S    
C49   C59   A    
C5    C8    A    
C45   H2    S    
C25   C104  A    
C21   O23   A    
Cr4   O19   S    
C54   C61   S    
C32   C63   S    
Cr6   O19   S    
C87   O13   A    
C42   C69   A    
C26   C79   A    
C30   H16   S    
C106  F1    S    
C24   C103  A    
C17   C25   A    
C14   C22   A    
C55   C86   A    
C80   C93   A    
C51   C78   A    
C40   H35   S    
C98   O24   A    
C10   F3    S    
C2    C56   S    
C48   H1    S    
Cr4   O24   S    
C81   C94   A    
C16   C95   A    
Cr1   O18   S    
C83   C96   A    
C47   H12   S    
Cr6   O14   S    
C51   H31   S    
C20   C73   A    
Cr5   O16   S    
C53   C88   A    
C38   H8    S    
C57   C98   S    
C90   C103  A    
C12   C55   S    
C27   C67   A    
C34   C73   A    
C28   C34   A    
C23   C102  A    
C52   C56   A    
C24   C77   A    
C56   C92   A    
C81   H25   S    
C29   H17   S    
Cr6   O17   S    
C46   H36   S    
C50   C77   A    
C3    C10   A    
C1    O5    A    
C49   H33   S    
C61   C80   A    
C4    C9    A    
C11   F4    S    
C59   C76   S    
C88   H18   S    
C3    F7    S    
C43   C62   S    
Cr4   O15   S    
Cr5   O25   S    
