data_str_m2_o10_o29_f0_pcu.sym.107
_audit_creation_date              2012-12-10T16:51:11-0500
_audit_creation_method            fapswitch 2.2
_symmetry_space_group_name_H-M    P1
_symmetry_Int_Tables_number       1
_space_group_crystal_system       triclinic
_cell_length_a                    27.778036
_cell_length_b                    8.672282
_cell_length_c                    7.433109
_cell_angle_alpha                 102.975761
_cell_angle_beta                  93.963636
_cell_angle_gamma                 92.405028
_cell_volume                      1737.68522915

loop_
_atom_site_label
_atom_site_type_symbol
_atom_type_description
_atom_site_fract_x
_atom_site_fract_y
_atom_site_fract_z
_atom_type_partial_charge
C1    C     C_R   0.498543 0.199656 0.453203 0.892476
C2    C     C_R   0.501457 0.800344 0.546797 0.892468
C3    C     C_R   0.102263 0.498574 0.515955 -0.043163
C4    C     C_R   0.897747 0.501502 0.484316 -0.043163
C5    C     C_R   0.125206 0.354258 0.479344 -0.020748
C6    C     C_R   0.874803 0.645816 0.520856 -0.020727
C7    C     C_R   0.097320 0.211413 0.437647 -0.151787
C8    C     C_R   0.902689 0.788664 0.562572 -0.151790
C9    C     C_R   0.130794 0.642173 0.559314 -0.021437
C10   C     C_R   0.869216 0.357903 0.440946 -0.021419
C11   C     C_R   0.354640 0.498860 0.509239 -0.036418
C12   C     C_R   0.645361 0.501185 0.490776 -0.036443
C13   C     C_R   0.971507 0.353735 0.455239 0.043947
C14   C     C_R   0.028504 0.646345 0.545119 0.043939
C15   C     C_R   0.977202 0.647090 0.536212 0.045161
C16   C     C_R   0.022809 0.352990 0.464122 0.045160
C17   C     C_R   0.949052 0.500775 0.491828 0.068565
C18   C     C_R   0.050959 0.499304 0.508501 0.068571
C19   C     C_R   0.941533 0.211921 0.410339 -0.215917
C20   C     C_R   0.058479 0.788158 0.590048 -0.215915
C21   C     C_R   0.891541 0.214376 0.403700 -0.143716
C22   C     C_R   0.108471 0.785700 0.596637 -0.143711
C23   C     C_R   0.407493 0.499651 0.502835 0.798849
C24   C     C_R   0.592507 0.500360 0.497167 0.798820
C25   C     C_R   0.047257 0.210373 0.430329 -0.214131
C26   C     C_R   0.952753 0.789706 0.569957 -0.214127
C27   C     C_2   0.497843 0.031736 0.426803 -0.362803
C28   C     C_2   0.502158 0.968264 0.573197 -0.362803
C29   C     C_R   0.175827 0.356259 0.484141 0.535539
C30   C     C_R   0.824181 0.643812 0.515958 0.535491
C31   C     C_R   0.181310 0.638839 0.562946 0.539228
C32   C     C_R   0.818699 0.361231 0.437229 0.539215
C33   C     C_R   0.274483 0.476068 0.350048 -0.102243
C34   C     C_R   0.725525 0.524809 0.650065 -0.102216
C35   C     C_R   0.324505 0.477297 0.344504 -0.204487
C36   C     C_R   0.675503 0.523556 0.655594 -0.204575
C37   C     C_R   0.333765 0.519183 0.679507 -0.212700
C38   C     C_R   0.666230 0.480083 0.320445 -0.212810
C39   C     C_R   0.283655 0.518416 0.684606 -0.098313
C40   C     C_R   0.716341 0.480850 0.315363 -0.098323
C41   C     C_R   0.253996 0.496765 0.519878 0.363931
C42   C     C_R   0.746008 0.503305 0.480172 0.363765
Cu1   Cu    Cu3+1 0.505380 0.517380 0.684380 0.956556
Cu2   Cu    Cu3+1 0.494620 0.482620 0.315620 0.956554
H1    H     H_    0.267842 0.534507 0.816232 0.134450
H2    H     H_    0.732151 0.464138 0.183689 0.134643
H3    H     H_    0.660513 0.540205 0.788841 0.158326
H4    H     H_    0.339498 0.461290 0.211306 0.158250
H5    H     H_    0.870385 0.102347 0.369261 0.193174
H6    H     H_    0.129628 0.897726 0.631082 0.193169
H7    H     H_    0.955242 0.095625 0.378838 0.138518
H8    H     H_    0.044770 0.904454 0.621609 0.138534
H9    H     H_    0.029022 0.094509 0.397236 0.135507
H10   H     H_    0.970988 0.905570 0.603036 0.135495
H11   H     H_    0.493777 0.960029 0.285770 0.179858
H12   H     H_    0.506223 0.039971 0.714230 0.179854
N1    N     N_R   0.202608 0.497249 0.524422 -0.473970
N2    N     N_R   0.797398 0.502821 0.475668 -0.473942
N3    N     N_2   0.486510 0.456430 0.038510 -0.218484
N4    N     N_2   0.513490 0.543570 0.961490 -0.218477
O1    O     O_R   0.503500 0.286120 0.619780 -0.583117
O2    O     O_R   0.496500 0.713880 0.380220 -0.583119
O3    O     O_R   0.494410 0.256780 0.308360 -0.583312
O4    O     O_R   0.505590 0.743220 0.691640 -0.583316
O5    O     O_R   0.434810 0.514700 0.655690 -0.591926
O6    O     O_R   0.565190 0.485300 0.344310 -0.591930
O7    O     O_R   0.425720 0.485350 0.344280 -0.584425
O8    O     O_R   0.574280 0.514650 0.655720 -0.584420
O9    O     O_2   0.198156 0.218648 0.448361 -0.515312
O10   O     O_2   0.801850 0.781424 0.551635 -0.515356
O11   O     O_2   0.791064 0.224258 0.397423 -0.512359
O12   O     O_2   0.208948 0.775807 0.602773 -0.512318
H13   H     H_    0.356072 0.535934 0.808569 0.158572
H14   H     H_    0.643917 0.462688 0.191326 0.158692
H15   H     H_    0.462191 0.378194 0.948557 0.225764
H16   H     H_    0.537809 0.621806 0.051443 0.225780
H17   H     H_    0.114107 0.098841 0.409591 0.186521
H18   H     H_    0.885901 0.901235 0.590581 0.186506
H19   H     H_    0.748450 0.541825 0.777690 0.135986
H20   H     H_    0.251564 0.459689 0.222487 0.135835

loop_
_geom_bond_atom_site_label_1
_geom_bond_atom_site_label_2
_ccdc_geom_bond_type
C8    C26   A    
C14   C18   A    
Cu2   O6    S    
C34   C42   A    
C32   N2    A    
C42   N2    S    
C21   H5    S    
C28   H12   S    
C39   C41   A    
C40   H2    S    
C3    C18   A    
C19   C21   A    
C25   H9    S    
C27   H11   S    
C9    C22   A    
Cu2   N3    S    
C1    O3    A    
C36   H3    S    
C23   O7    A    
C11   C37   A    
Cu1   O8    S    
C12   C36   A    
C29   O9    S    
C24   O6    A    
C39   H1    S    
C40   C42   A    
N3    N4    D    
Cu2   O3    S    
C8    H18   S    
C35   H4    S    
C26   H10   S    
C30   O10   S    
C2    O4    A    
Cu1   O4    S    
C32   O11   S    
C5    C29   A    
C10   C21   A    
C13   C19   A    
C14   C20   A    
C22   H6    S    
C4    C6    A    
C5    C7    A    
C24   O8    A    
C15   C26   A    
C6    C8    A    
Cu2   O2    S    
N4    H16   S    
Cu1   Cu2   S    
C3    C9    A    
C10   C32   A    
C34   H19   S    
Cu1   O5    S    
Cu1   N4    S    
C4    C17   A    
C31   O12   S    
C6    C30   A    
C20   C22   A    
C4    C10   A    
N3    H15   S    
Cu1   O1    S    
C38   H14   S    
C16   C25   A    
C15   C17   A    
C37   H13   S    
C29   N1    A    
C3    C5    A    
C1    O1    A    
C33   H20   S    
C13   C17   A    
C12   C24   S    
C7    C25   A    
C7    H17   S    
C20   H8    S    
C33   C41   A    
C31   N1    A    
C11   C35   A    
C41   N1    S    
C37   C39   A    
C38   C40   A    
C23   O5    A    
C30   N2    A    
C11   C23   S    
C33   C35   A    
C34   C36   A    
C12   C38   A    
C9    C31   A    
C19   H7    S    
C16   C18   A    
C13   C16   A    
C27   C28   D    
C1    C27   S    
C14   C15   A    
Cu2   O7    S    
C2    C28   S    
C2    O2    A    
