data_str_m4_o12_o15_f0_acs.sym.14
_audit_creation_date              2012-12-11T14:13:10-0500
_audit_creation_method            fapswitch 2.2
_symmetry_space_group_name_H-M    P1
_symmetry_Int_Tables_number       1
_space_group_crystal_system       triclinic
_cell_length_a                    11.431468
_cell_length_b                    18.722801
_cell_length_c                    10.058865
_cell_angle_alpha                 89.879328
_cell_angle_beta                  109.211763
_cell_angle_gamma                 89.698201
_cell_volume                      2032.94787407

loop_
_atom_site_label
_atom_site_type_symbol
_atom_type_description
_atom_site_fract_x
_atom_site_fract_y
_atom_site_fract_z
_atom_type_partial_charge
C1    C     C_R   0.075792 0.645436 0.141909 0.531450
C2    C     C_2   0.609016 0.070313 0.062392 -0.096159
C3    C     C_2   0.575799 0.417956 0.083893 -0.099784
C4    C     C_2   0.424200 0.582042 0.916110 -0.099801
C5    C     C_2   0.498858 0.961436 0.990422 -0.172202
C6    C     C_2   0.501184 0.038539 0.009455 -0.172231
C7    C     C_2   0.542795 0.472371 0.993001 -0.171163
C8    C     C_2   0.457227 0.527635 0.007017 -0.171152
C9    C     C_2   0.014154 0.923784 0.116227 -0.134565
C10   C     C_2   0.985793 0.076200 0.883748 -0.134509
C11   C     C_2   0.984361 0.424001 0.882817 -0.133084
C12   C     C_R   0.924211 0.354563 0.858092 0.531434
C13   C     C_2   0.015647 0.575997 0.117190 -0.133079
C14   C     C_2   0.021675 0.963327 0.008545 -0.156006
C15   C     C_2   0.978233 0.036650 0.991402 -0.155997
C16   C     C_2   0.978097 0.463402 0.991280 -0.154424
C17   C     C_2   0.021912 0.536595 0.008728 -0.154439
C18   C     C_R   0.436229 0.637536 0.374404 0.542194
C19   C     C_R   0.563778 0.362461 0.625611 0.542212
C20   C     C_R   0.563610 0.137315 0.625145 0.545147
C21   C     C_R   0.436371 0.862677 0.374815 0.545223
C22   C     C_R   0.378936 0.646212 0.963482 0.544333
C23   C     C_R   0.925034 0.145654 0.858471 0.531976
C24   C     C_R   0.621064 0.353787 0.036518 0.544326
C25   C     C_R   0.624592 0.144671 0.034904 0.551003
C26   C     C_R   0.375417 0.855321 0.965072 0.550982
C27   C     C_R   0.542850 0.438365 0.581882 -0.028460
C28   C     C_R   0.457167 0.561634 0.418159 -0.028450
C29   C     C_R   0.457977 0.938459 0.418543 -0.021044
C30   C     C_R   0.541976 0.061543 0.581329 -0.021012
C31   C     C_R   0.367128 0.450986 0.676692 -0.144220
C32   C     C_R   0.632880 0.549006 0.323338 -0.144236
C33   C     C_R   0.637280 0.949379 0.330182 -0.129898
C34   C     C_R   0.074946 0.854337 0.141522 0.531939
C35   C     C_R   0.362659 0.050608 0.669673 -0.129891
C36   C     C_R   0.252292 0.480113 0.665933 -0.049356
C37   C     C_R   0.747710 0.519874 0.334079 -0.049336
C38   C     C_R   0.754538 0.975875 0.346578 -0.060373
C39   C     C_R   0.245375 0.024131 0.653212 -0.060415
C40   C     C_R   0.197641 0.529264 0.560836 0.280707
C41   C     C_R   0.802368 0.470731 0.439182 0.280710
C42   C     C_R   0.805956 0.026537 0.448500 0.286899
C43   C     C_R   0.193936 0.973508 0.551215 0.286891
C44   C     C_R   0.262927 0.550318 0.471790 -0.087421
C45   C     C_R   0.433439 0.472867 0.586068 0.000861
C46   C     C_R   0.737091 0.449684 0.528247 -0.087415
C47   C     C_R   0.738155 0.048800 0.533890 -0.086257
C48   C     C_R   0.261760 0.951245 0.465846 -0.086138
C49   C     C_R   0.385209 0.529331 0.492802 -0.029671
C50   C     C_R   0.614810 0.470669 0.507241 -0.029664
C51   C     C_R   0.615718 0.028339 0.510308 -0.028132
C52   C     C_R   0.384221 0.971674 0.489519 -0.028147
C53   C     C_R   0.566577 0.527130 0.413973 0.000864
C54   C     C_R   0.568623 0.972082 0.417319 0.018520
C55   C     C_R   0.431323 0.027918 0.582537 0.018518
C56   C     C_2   0.391023 0.929666 0.937494 -0.096181
Cr1   Cr    Cr6+3 0.187610 0.750000 0.979860 1.047542
Cr2   Cr    Cr6+3 0.812390 0.250000 0.020140 1.047625
Cr3   Cr    Cr6+3 0.245810 0.750000 0.341640 1.025589
Cr4   Cr    Cr6+3 0.754190 0.250000 0.658360 1.025625
Cr5   Cr    Cr6+3 0.485760 0.750000 0.219910 1.004907
Cr6   Cr    Cr6+3 0.514240 0.250000 0.780090 1.004927
H1    H     H_    0.204985 0.463082 0.737570 0.127385
H2    H     H_    0.783101 0.421489 0.620174 0.147571
H3    H     H_    0.782056 0.078125 0.624580 0.145741
H4    H     H_    0.217851 0.921991 0.375065 0.145593
H5    H     H_    0.416080 0.069831 0.973971 0.132170
H6    H     H_    0.583963 0.930141 0.025967 0.132151
H7    H     H_    0.425565 0.526354 0.097824 0.124930
H8    H     H_    0.574470 0.473657 0.902201 0.124927
H9    H     H_    0.693081 0.038540 0.101075 0.106673
H10   H     H_    0.306962 0.961441 0.898744 0.106670
H11   H     H_    0.451165 0.584255 0.822254 0.116228
H12   H     H_    0.795011 0.536899 0.262433 0.127411
H13   H     H_    0.548775 0.415727 0.177714 0.116224
H14   H     H_    0.935066 0.057488 0.065063 0.176451
H15   H     H_    0.064827 0.942488 0.934871 0.176425
H16   H     H_    0.064056 0.557501 0.934289 0.182136
H17   H     H_    0.935951 0.442496 0.065719 0.182139
H18   H     H_    0.023000 0.053931 0.806302 0.111275
H19   H     H_    0.976969 0.946056 0.193687 0.111364
H20   H     H_    0.979265 0.553721 0.195300 0.115952
H21   H     H_    0.020744 0.446277 0.804709 0.115889
H22   H     H_    0.056974 0.590749 0.468844 0.335554
H23   H     H_    0.805095 0.956804 0.279642 0.111889
H24   H     H_    0.943100 0.409324 0.531284 0.335573
H25   H     H_    0.942082 0.090764 0.536141 0.334155
H26   H     H_    0.057843 0.909237 0.463604 0.334097
H27   H     H_    0.194807 0.043191 0.720141 0.111897
H28   H     H_    0.403074 0.412134 0.758960 0.166550
H29   H     H_    0.596932 0.587858 0.241074 0.166545
H30   H     H_    0.601579 0.911158 0.247935 0.157083
H31   H     H_    0.398371 0.088806 0.751961 0.157050
H32   H     H_    0.216918 0.578519 0.379860 0.147598
O1    O     O_R   0.267710 0.668200 0.902110 -0.488259
O2    O     O_R   0.883280 0.330790 0.732340 -0.552350
O3    O     O_R   0.883280 0.169210 0.732340 -0.552331
O4    O     O_R   0.116720 0.830790 0.267660 -0.552325
O5    O     O_R   0.366710 0.675440 0.427590 -0.483542
O6    O     O_R   0.633290 0.324560 0.572410 -0.483513
O7    O     O_R   0.633290 0.175440 0.572410 -0.481552
O8    O     O_R   0.366710 0.824560 0.427590 -0.481490
O9    O     O_R   0.534870 0.669390 0.371760 -0.499232
O10   O     O_R   0.465130 0.330610 0.628240 -0.499224
O11   O     O_R   0.465130 0.169390 0.628240 -0.503052
O12   O     O_R   0.732290 0.331800 0.097890 -0.488234
O13   O     O_R   0.534870 0.830610 0.371760 -0.503079
O14   O     O_R   0.453080 0.674480 0.075160 -0.533345
O15   O     O_R   0.546920 0.325520 0.924840 -0.533366
O16   O     O_R   0.546920 0.174480 0.924840 -0.533925
O17   O     O_R   0.453080 0.825520 0.075160 -0.533950
O18   O     O_3   0.306390 0.750000 0.180470 -0.297575
O19   O     O_3   0.693610 0.250000 0.819530 -0.297590
O20   O     O_3   0.081728 0.555901 0.547681 -0.662995
O21   O     O_3   0.918284 0.444098 0.452333 -0.662949
O22   O     O_3   0.920260 0.054425 0.460540 -0.659880
O23   O     O_R   0.732290 0.168200 0.097890 -0.497622
O24   O     O_3   0.079571 0.945678 0.539057 -0.659938
O25   O     O_R   0.267710 0.831800 0.902110 -0.497704
O26   O     O_R   0.099480 0.674460 0.038850 -0.486754
O27   O     O_R   0.900520 0.325540 0.961150 -0.486754
O28   O     O_R   0.900520 0.174460 0.961150 -0.488236
O29   O     O_R   0.099480 0.825540 0.038850 -0.488246
O30   O     O_R   0.116720 0.669210 0.267660 -0.552375

loop_
_geom_bond_atom_site_label_1
_geom_bond_atom_site_label_2
_ccdc_geom_bond_type
C44   C49   A    
C37   H12   S    
C34   O29   A    
Cr3   O5    S    
C22   O1    A    
C5    C56   D    
C4    C8    D    
C7    H8    S    
C3    C24   S    
C7    C8    S    
Cr6   O11   S    
C20   C30   S    
C8    H7    S    
C47   H3    S    
Cr5   O9    S    
C30   C51   A    
C38   C42   A    
C3    C7    D    
C10   C15   D    
C5    C6    S    
C32   H29   S    
C29   C54   A    
Cr3   O30   S    
C11   C16   D    
C14   H15   S    
Cr5   O14   S    
C40   O20   S    
C12   O27   A    
C16   C17   S    
C56   H10   S    
Cr2   O19   S    
C41   C46   A    
C36   H1    S    
C3    H13   S    
C43   C48   A    
C40   C44   A    
C27   C50   A    
Cr1   O25   S    
C27   C45   A    
C15   H14   S    
Cr4   O19   S    
C2    C6    D    
C41   O21   S    
C5    H6    S    
C23   O28   A    
Cr6   O10   S    
C35   H31   S    
Cr2   O28   S    
C50   C53   A    
C38   H23   S    
C35   C55   A    
C36   C40   A    
C18   C28   S    
C26   O25   A    
Cr6   O19   S    
Cr4   O3    S    
C33   H30   S    
C10   H18   S    
C39   C43   A    
C20   O7    A    
C11   H21   S    
C21   C29   S    
C13   H20   S    
Cr2   O23   S    
C46   H2    S    
H24   O21   S    
Cr2   O12   S    
C1    O26   A    
C35   C39   A    
C9    C14   D    
Cr1   O29   S    
C4    C22   S    
C19   O10   A    
Cr6   O16   S    
C45   C49   A    
C28   C53   A    
C31   H28   S    
Cr3   O18   S    
C4    H11   S    
C32   C37   A    
H25   O22   S    
C21   O13   A    
C25   O16   A    
Cr1   O26   S    
C21   O8    A    
Cr4   O2    S    
C42   O22   S    
C6    H5    S    
C23   O3    A    
Cr1   O1    S    
C9    C34   S    
C24   O12   A    
C18   O5    A    
H26   O24   S    
C2    H9    S    
Cr5   O17   S    
C32   C53   A    
C19   C27   S    
C20   O11   A    
C25   O23   A    
C33   C54   A    
Cr2   O27   S    
H22   O20   S    
C14   C15   S    
Cr3   O8    S    
C24   O15   A    
Cr4   O6    S    
C26   C56   S    
C47   C51   A    
C19   O6    A    
C52   C55   A    
C10   C23   S    
C30   C55   A    
C46   C50   A    
C33   C38   A    
C13   C17   D    
C16   H17   S    
C51   C54   A    
C1    O30   A    
C18   O9    A    
Cr6   O15   S    
C22   O14   A    
C17   H16   S    
C34   O4    A    
C28   C49   A    
C2    C25   S    
C42   C47   A    
C37   C41   A    
Cr5   O13   S    
C44   H32   S    
C43   O24   S    
Cr1   O18   S    
C48   C52   A    
C1    C13   S    
C31   C45   A    
Cr3   O4    S    
C31   C36   A    
C12   O2    A    
C48   H4    S    
Cr5   O18   S    
C26   O17   A    
C39   H27   S    
Cr4   O7    S    
C11   C12   S    
C9    H19   S    
C29   C52   A    
