data_str_m3_o10_o28_f0_pcu.sym.202
_audit_creation_date              2012-12-10T16:58:27-0500
_audit_creation_method            fapswitch 2.2
_symmetry_space_group_name_H-M    P1
_symmetry_Int_Tables_number       1
_space_group_crystal_system       triclinic
_cell_length_a                    7.732471
_cell_length_b                    8.581872
_cell_length_c                    23.481254
_cell_angle_alpha                 91.022028
_cell_angle_beta                  86.159185
_cell_angle_gamma                 93.895211
_cell_volume                      1550.9650557

loop_
_atom_site_label
_atom_site_type_symbol
_atom_type_description
_atom_site_fract_x
_atom_site_fract_y
_atom_site_fract_z
_atom_type_partial_charge
C1    C     C_R   0.546076 0.794923 0.498502 0.974262
C2    C     C_R   0.453924 0.205077 0.501498 0.974264
C3    C     C_R   0.369360 0.423061 0.764935 -0.112461
C4    C     C_R   0.630639 0.576971 0.235066 -0.112466
C5    C     C_R   0.366352 0.421764 0.705924 0.233068
C6    C     C_R   0.633654 0.578246 0.294076 0.233071
C7    C     C_R   0.507482 0.494421 0.672578 -0.198988
C8    C     C_R   0.492517 0.505591 0.327422 -0.199000
C9    C     C_R   0.652581 0.562868 0.699677 0.234668
C10   C     C_R   0.347407 0.437167 0.300322 0.234687
C11   C     C_R   0.655925 0.556326 0.758601 -0.090450
C12   C     C_R   0.344058 0.443732 0.241401 -0.090451
C13   C     C_R   0.513742 0.489294 0.791355 0.177715
C14   C     C_R   0.486244 0.510762 0.208647 0.177721
C15   C     C_2   0.570290 0.958454 0.497617 -0.323987
C16   C     C_2   0.429710 0.041546 0.502383 -0.323987
C17   C     C_R   0.502493 0.499094 0.610578 0.948349
C18   C     C_R   0.497507 0.500907 0.389421 0.948339
C19   C     C_R   0.464010 0.367410 0.119816 0.522325
C20   C     C_R   0.535967 0.632653 0.880186 0.522324
C21   C     C_R   0.512420 0.645768 0.118879 0.524743
C22   C     C_R   0.487565 0.354294 0.881124 0.524739
C23   C     C_R   0.522349 0.644998 0.059306 -0.019961
C24   C     C_R   0.477626 0.355065 0.940697 -0.019957
C25   C     C_R   0.496730 0.501721 0.029963 -0.018082
C26   C     C_R   0.503240 0.498343 0.970040 -0.018078
C27   C     C_R   0.464819 0.361781 0.060372 -0.018194
C28   C     C_R   0.535152 0.638283 0.939631 -0.018199
C29   C     C_R   0.557879 0.783462 0.028570 -0.162255
C30   C     C_R   0.442094 0.216602 0.971433 -0.162257
C31   C     C_R   0.564266 0.780126 0.969211 -0.159788
C32   C     C_R   0.435704 0.219938 0.030792 -0.159788
H1    H     H_    0.582514 0.894245 0.050252 0.193342
H2    H     H_    0.417461 0.105819 0.949750 0.193342
H3    H     H_    0.593417 0.888467 0.946583 0.194510
H4    H     H_    0.406555 0.111597 0.053419 0.194510
H5    H     H_    0.259221 0.371335 0.790537 0.190753
H6    H     H_    0.740782 0.628694 0.209464 0.190750
H7    H     H_    0.767707 0.607428 0.779323 0.193270
H8    H     H_    0.232270 0.392645 0.220678 0.193266
H9    H     H_    0.702882 0.009934 0.493054 0.193501
H10   H     H_    0.297118 0.990066 0.506946 0.193501
H11   H     H_    0.013108 0.378198 0.458956 0.231852
H12   H     H_    0.986892 0.621801 0.541045 0.231852
N1    N     N_R   0.486219 0.508089 0.147801 -0.345612
N2    N     N_R   0.513764 0.491973 0.852201 -0.345610
N3    N     N_2   0.950330 0.457950 0.484560 -0.145234
N4    N     N_2   0.049670 0.542050 0.515440 -0.145237
O1    O     O_R   0.389250 0.738570 0.503790 -0.619287
O2    O     O_R   0.610750 0.261430 0.496210 -0.619288
O3    O     O_R   0.678390 0.711620 0.493890 -0.613768
O4    O     O_R   0.321610 0.288380 0.506110 -0.613770
O5    O     O_R   0.355400 0.513520 0.588790 -0.572518
O6    O     O_R   0.644600 0.486480 0.411210 -0.572511
O7    O     O_R   0.644550 0.486570 0.578900 -0.597301
O8    O     O_R   0.355450 0.513430 0.421100 -0.597302
O9    O     O_2   0.444040 0.233255 0.149429 -0.512113
O10   O     O_2   0.555939 0.766808 0.850571 -0.512107
O11   O     O_2   0.527570 0.782910 0.147775 -0.510589
O12   O     O_2   0.472430 0.217151 0.852228 -0.510593
Zn1   Zn    Zn3+2 0.306930 0.518000 0.506610 1.040797
Zn2   Zn    Zn3+2 0.693070 0.482000 0.493390 1.040799
Br1   Br    Br    0.168687 0.311660 0.674403 -0.397391
Br2   Br    Br    0.831348 0.688310 0.325596 -0.397396
Br3   Br    Br    0.845006 0.677771 0.660190 -0.435179
Br4   Br    Br    0.154974 0.322260 0.339806 -0.435165

loop_
_geom_bond_atom_site_label_1
_geom_bond_atom_site_label_2
_ccdc_geom_bond_type
C12   H8    S    
C11   H7    S    
C23   C29   A    
C19   N1    A    
C1    C15   S    
C17   O5    A    
C2    C16   S    
C25   C27   A    
C1    O3    A    
C17   O7    A    
C26   C28   A    
N3    N4    D    
C3    C13   A    
C18   O8    A    
C9    C11   A    
C22   O12   S    
N3    Zn2   S    
C23   C25   A    
C27   C32   A    
C5    C7    A    
C29   C31   A    
C19   O9    S    
C30   C32   A    
C11   C13   A    
C15   H9    S    
N4    Zn1   S    
O3    Zn2   S    
C2    O4    A    
C21   N1    A    
C32   H4    S    
C31   H3    S    
C8    C10   A    
C22   N2    A    
C24   C26   A    
C21   O11   S    
C14   N1    S    
C10   C12   A    
O4    Zn1   S    
C10   Br4   S    
C21   C23   A    
C4    C14   A    
C13   N2    S    
O2    Zn2   S    
C9    Br3   S    
C24   C30   A    
O1    Zn1   S    
C18   O6    A    
C20   O10   S    
C15   C16   D    
O7    Zn2   S    
C29   H1    S    
C19   C27   A    
C5    Br1   S    
C4    C6    A    
C22   C24   A    
C6    Br2   S    
C7    C9    A    
C30   H2    S    
O8    Zn1   S    
O6    Zn2   S    
C6    C8    A    
C20   C28   A    
C2    O2    A    
C3    C5    A    
C25   C26   A    
C4    H6    S    
C16   H10   S    
O5    Zn1   S    
C28   C31   A    
C8    C18   S    
H12   N4    S    
C3    H5    S    
C12   C14   A    
H11   N3    S    
C7    C17   S    
C20   N2    A    
C1    O1    A    
