data_str_m2_o14_o24_f0_pcu.sym.26
_audit_creation_date              2013-03-05T15:51:40-0500
_audit_creation_method            fapswitch 2.2
_symmetry_space_group_name_H-M    P1
_symmetry_Int_Tables_number       1
_space_group_crystal_system       triclinic
_cell_length_a                    10.623823
_cell_length_b                    10.862071
_cell_length_c                    9.586124
_cell_angle_alpha                 90.560331
_cell_angle_beta                  89.77048
_cell_angle_gamma                 92.610334
_cell_volume                      1104.9995691

loop_
_atom_site_label
_atom_site_type_symbol
_atom_site_description
_atom_site_fract_x
_atom_site_fract_y
_atom_site_fract_z
_atom_type_partial_charge
O1    O     O_R   0.499990 0.319640 0.618810 -0.588286
O2    O     O_R   0.500000 0.319660 0.381240 -0.580699
C1    C     C_R   0.510537 0.263276 0.499964 0.797385
O3    O     O_R   0.316850 0.499960 0.618770 -0.583673
O4    O     O_R   0.316860 0.499980 0.381190 -0.578796
C2    C     C_R   0.259346 0.499951 0.500315 0.795938
Cu1   Cu    Cu3+1 0.499990 0.499990 0.640660 0.925141
Cu2   Cu    Cu3+1 0.500010 0.500010 0.359340 0.941044
O5    O     O_R   0.500000 0.680340 0.618760 -0.615159
O6    O     O_R   0.500010 0.680360 0.381190 -0.595537
O7    O     O_R   0.683140 0.500020 0.618810 -0.604591
O8    O     O_R   0.683150 0.500040 0.381230 -0.597447
C3    C     C_R   0.494172 0.737764 0.501845 0.795279
C4    C     C_R   0.740610 0.500864 0.499692 0.782151
C5    C     C_3   0.039682 0.497305 0.632735 -0.141399
C6    C     C_3   0.952523 0.398113 0.561088 -0.163368
H1    H     H_    0.910441 0.313956 0.610927 0.138055
H2    H     H_    0.074771 0.494180 0.741550 0.147972
C7    C     C_3   0.877522 0.501352 0.498941 0.017079
C8    C     C_3   0.962364 0.600592 0.570452 -0.147266
C9    C     C_3   0.047272 0.604009 0.438917 -0.124548
C10   C     C_3   0.960054 0.504844 0.367267 -0.111205
C11   C     C_3   0.037315 0.401525 0.429533 -0.171034
C12   C     C_3   0.122302 0.500669 0.501060 -0.014473
H3    H     H_    0.928351 0.681915 0.628018 0.140680
H4    H     H_    0.089102 0.688234 0.389018 0.163513
H5    H     H_    0.924747 0.508288 0.258542 0.152644
H6    H     H_    0.071073 0.320120 0.371945 0.146360
H7    H     H_    0.489018 0.108560 0.279759 0.161144
C13   C     C_R   0.593622 0.125342 0.749474 -0.154685
H8    H     H_    0.643544 0.214196 0.745193 0.159413
C14   C     C_R   0.584276 0.068570 0.878930 -0.131143
H9    H     H_    0.621191 0.115506 0.971222 0.149567
C15   C     C_R   0.522748 0.953636 0.889996 -0.134934
H10   H     H_    0.508337 0.912320 0.991502 0.139657
C16   C     C_R   0.482517 0.890162 0.769938 -0.162727
H11   H     H_    0.430040 0.804267 0.786315 0.173854
C17   C     C_R   0.504474 0.940837 0.635483 0.092212
C18   C     C_R   0.541669 0.066778 0.628591 0.101450
C19   C     C_R   0.523333 0.129727 0.501799 -0.120222
C20   C     C_R   0.499949 0.062720 0.378569 -0.187508
H12   H     H_    0.477712 0.886432 0.282475 0.161856
C21   C     C_R   0.489583 0.935515 0.380826 -0.168299
C22   C     C_R   0.490957 0.872686 0.507759 -0.110810
H13   H     H_    0.357099 0.360740 0.128339 0.136030
C23   C     C_R   0.668920 0.662955 0.144837 -0.263506
H14   H     H_    0.674590 0.669165 0.254638 0.239510
C24   C     C_R   0.752847 0.743192 0.073733 0.322614
C25   C     C_R   0.751752 0.741800 0.929040 -0.279796
H15   H     H_    0.814941 0.803203 0.870577 0.195380
C26   C     C_R   0.668569 0.662611 0.856884 -0.224541
H16   H     H_    0.674886 0.671529 0.747023 0.223044
C27   C     C_R   0.582924 0.580065 0.925671 0.206702
C28   C     C_R   0.583003 0.580117 0.075108 0.155068
N1    N     N_R   0.501210 0.501210 0.147910 -0.186781
C29   C     C_R   0.421442 0.423471 0.073440 -0.054877
H17   H     H_    0.357158 0.360789 0.869676 0.144024
C30   C     C_R   0.421469 0.423512 0.925447 -0.064934
N2    N     N_R   0.501250 0.501290 0.852040 -0.196692
N3    N     N_R   0.838649 0.826274 0.148769 0.125521
O9    O     O_R   0.841044 0.827350 0.284552 -0.399784
O10   O     O_R   0.915265 0.901919 0.081854 -0.371569

loop_
_geom_bond_atom_site_label_1
_geom_bond_atom_site_label_2
_geom_bond_distance
_ccdc_geom_bond_type
C1    C19   1.463410 S    
C5    H2    1.110486 S    
Cu1   O7    1.956145 S    
C9    H4    1.110441 S    
C17   C22   1.428887 A    
O4    Cu2   1.956146 S    
C7    C8    1.531776 S    
Cu2   O8    1.957751 S    
C11   C12   1.532005 S    
C2    C12   1.456296 S    
C14   H9    1.082680 S    
C23   C28   1.416997 A    
N1    C29   1.366994 A    
C16   C17   1.420715 A    
O2    C1    1.305300 A    
C27   N2    1.381563 A    
H7    C20   1.083501 S    
Cu1   Cu2   2.696770 S    
O1    Cu1   1.968102 S    
C9    C10   1.546051 S    
C3    C22   1.468019 S    
N3    O10   1.301658 A    
C13   C14   1.392324 A    
C20   C21   1.381458 A    
H17   C30   1.081758 S    
C13   H8    1.080949 S    
C6    C7    1.531533 S    
O4    C2    1.292978 A    
Cu2   N1    2.026949 S    
Cu1   N2    2.026321 S    
C5    C12   1.534325 S    
C29   C30   1.418683 A    
C13   C18   1.418032 A    
C24   N3    1.442347 S    
C6    C11   1.546602 S    
C15   C16   1.394338 A    
C10   H5    1.110652 S    
O3    Cu1   1.957751 S    
C21   C22   1.401373 A    
C5    C8    1.546227 S    
C15   H10   1.082932 S    
O7    C4    1.292613 A    
C23   C24   1.398259 A    
O3    C2    1.291582 A    
C11   H6    1.110401 S    
H12   C21   1.083522 S    
C26   C27   1.413884 A    
C5    C6    1.545873 S    
C6    H1    1.110556 S    
C7    C10   1.533791 S    
C17   C18   1.408613 A    
C8    C9    1.547159 S    
H13   C29   1.081771 S    
C16   H11   1.077364 S    
C25   H15   1.083099 S    
C8    H3    1.110552 S    
C9    C12   1.532513 S    
C18   C19   1.418829 A    
Cu1   O5    1.972226 S    
O5    C3    1.291020 A    
C28   N1    1.384105 A    
C24   C25   1.387064 A    
C19   C20   1.398569 A    
C25   C26   1.386831 A    
C30   N2    1.367084 A    
C23   H14   1.055855 S    
C4    C7    1.454288 S    
Cu2   O6    1.968103 S    
O2    Cu2   1.972228 S    
C10   C11   1.546097 S    
C26   H16   1.060100 S    
C27   C28   1.432524 A    
O8    C4    1.291181 A    
N3    O9    1.301913 A    
O1    C1    1.294953 A    
O6    C3    1.311196 A    
C14   C15   1.387366 A    
