data_str_m3_o10_o14_f0_pcu.sym.210
_audit_creation_date              2012-12-10T16:50:07-0500
_audit_creation_method            fapswitch 2.2
_symmetry_space_group_name_H-M    P1
_symmetry_Int_Tables_number       1
_space_group_crystal_system       triclinic
_cell_length_a                    7.82701
_cell_length_b                    8.555564
_cell_length_c                    10.590413
_cell_angle_alpha                 91.348721
_cell_angle_beta                  85.598996
_cell_angle_gamma                 93.502852
_cell_volume                      705.642848301

loop_
_atom_site_label
_atom_site_type_symbol
_atom_type_description
_atom_site_fract_x
_atom_site_fract_y
_atom_site_fract_z
_atom_type_partial_charge
C1    C     C_R   0.545461 0.794441 0.496787 0.923935
C2    C     C_R   0.459337 0.650763 0.939027 0.092986
C3    C     C_R   0.507053 0.514405 0.871320 -0.080542
C4    C     C_R   0.554420 0.381957 0.930136 -0.205765
C5    C     C_R   0.549746 0.380505 0.059275 -0.195373
C6    C     C_R   0.497878 0.511535 0.128711 -0.061588
C7    C     C_2   0.569317 0.957988 0.494632 -0.386514
C8    C     C_2   0.430634 0.041976 0.504444 -0.382316
C9    C     C_R   0.502249 0.504054 0.739102 0.849869
C10   C     C_R   0.454544 0.205553 0.502977 0.968156
C11   C     C_R   0.498903 0.502580 0.260874 0.850640
C12   C     C_R   0.420941 0.788627 0.878312 -0.174406
C13   C     C_R   0.377977 0.921989 0.949156 -0.136955
C14   C     C_R   0.373118 0.920447 0.080770 -0.127639
C15   C     C_R   0.411234 0.785663 0.141958 -0.141522
C16   C     C_R   0.454411 0.649252 0.071449 0.104285
H1    H     H_    0.591270 0.278623 0.875897 0.149983
H2    H     H_    0.986583 0.600538 0.607672 0.190691
H3    H     H_    0.426387 0.795433 0.776257 0.141809
H4    H     H_    0.349675 0.027120 0.901771 0.140993
H5    H     H_    0.341081 0.024372 0.135598 0.133432
H6    H     H_    0.408502 0.790261 0.244122 0.148163
H7    H     H_    0.584716 0.276530 0.105523 0.150347
H8    H     H_    0.700436 0.008724 0.485146 0.204773
H9    H     H_    0.299511 0.991241 0.513772 0.201085
N1    N     N_2   0.950330 0.457950 0.466250 -0.161624
N2    N     N_2   0.049670 0.542050 0.533750 -0.204332
O1    O     O_R   0.389250 0.738570 0.508280 -0.626744
O2    O     O_R   0.678390 0.711630 0.486650 -0.621829
O3    O     O_R   0.355400 0.513470 0.694050 -0.618322
O4    O     O_R   0.644540 0.486530 0.672420 -0.629482
O5    O     O_R   0.321610 0.288370 0.513350 -0.589493
O6    O     O_R   0.610750 0.261430 0.491720 -0.625513
O7    O     O_R   0.355460 0.513470 0.327580 -0.618504
O8    O     O_R   0.644600 0.486530 0.305950 -0.601620
Zn1   Zn    Zn3+2 0.306930 0.517990 0.514440 0.970180
Zn2   Zn    Zn3+2 0.693070 0.482010 0.485560 0.973525
C17   C     C_2   0.023034 0.393068 0.352137 1.139180
O9    O     O_2   0.025962 0.466650 0.254356 -0.633088
O10   O     O_R   0.076186 0.240168 0.349193 -0.824198
H10   H     H_    0.122415 0.205865 0.261505 0.313337

loop_
_geom_bond_atom_site_label_1
_geom_bond_atom_site_label_2
_ccdc_geom_bond_type
C1    O1    A    
N1    Zn2   S    
C3    C9    S    
N2    Zn1   S    
C2    C16   A    
C5    H7    S    
O3    Zn1   S    
C2    C12   A    
C11   O8    A    
C2    C3    A    
C3    C4    A    
C7    C8    D    
C13   C14   A    
C17   O10   S    
C8    H9    S    
O1    Zn1   S    
N1    N2    D    
C17   O9    D    
C9    O3    A    
C4    H1    S    
O5    Zn1   S    
C14   H5    S    
C1    O2    A    
O10   H10   S    
O8    Zn2   S    
C10   O6    A    
O7    Zn1   S    
C15   H6    S    
C5    C6    A    
C9    O4    A    
C6    C16   A    
C15   C16   A    
C10   O5    A    
C12   C13   A    
C12   H3    S    
C8    C10   S    
O2    Zn2   S    
C6    C11   S    
C14   C15   A    
N1    C17   S    
C13   H4    S    
C1    C7    S    
C11   O7    A    
O6    Zn2   S    
H2    N2    S    
C7    H8    S    
O4    Zn2   S    
C4    C5    A    
