data_str_m2_o1_o8_f0_pcu.sym.196
_audit_creation_date              2012-12-10T18:05:14-0500
_audit_creation_method            fapswitch 2.2
_symmetry_space_group_name_H-M    P1
_symmetry_Int_Tables_number       1
_space_group_crystal_system       triclinic
_cell_length_a                    9.618938
_cell_length_b                    10.767996
_cell_length_c                    17.030473
_cell_angle_alpha                 87.146266
_cell_angle_beta                  94.372499
_cell_angle_gamma                 88.472563
_cell_volume                      1755.82328616

loop_
_atom_site_label
_atom_site_type_symbol
_atom_type_description
_atom_site_fract_x
_atom_site_fract_y
_atom_site_fract_z
_atom_type_partial_charge
C1    C     C_R   0.501179 0.262444 0.500208 0.789987
C2    C     C_R   0.498823 0.737560 0.499813 0.799771
C3    C     C_R   0.403218 0.935082 0.542324 -0.080043
C4    C     C_R   0.596595 0.064967 0.457521 -0.077617
C5    C     C_R   0.497693 0.871580 0.499204 -0.049369
C6    C     C_R   0.502238 0.128448 0.500728 -0.046123
C7    C     C_R   0.085621 0.410857 0.541561 -0.132430
C8    C     C_R   0.914417 0.589129 0.458427 -0.130551
C9    C     C_R   0.938522 0.408748 0.542675 0.494753
C10   C     C_R   0.061530 0.591379 0.457462 0.495064
C11   C     C_R   0.517776 0.496589 0.650747 0.862688
C12   C     C_R   0.482400 0.498111 0.349315 0.876069
C13   C     C_R   0.528213 0.483523 0.736794 -0.152944
C14   C     C_R   0.473240 0.483698 0.264002 -0.175991
C15   C     C_R   0.429321 0.415194 0.774708 -0.266709
C16   C     C_R   0.583297 0.424521 0.230207 -0.266646
C17   C     C_R   0.439133 0.395684 0.856627 0.382323
C18   C     C_R   0.575808 0.402980 0.149832 0.376008
C19   C     C_R   0.546735 0.454962 0.902298 0.159996
C20   C     C_R   0.457872 0.451566 0.100572 0.165806
C21   C     C_R   0.647430 0.522498 0.863024 0.288083
C22   C     C_R   0.345831 0.508696 0.135713 0.325595
C23   C     C_R   0.638694 0.534132 0.780812 -0.218347
C24   C     C_R   0.353300 0.521974 0.216995 -0.240397
C25   C     C_R   0.404952 0.063616 0.542754 -0.141959
C26   C     C_R   0.594946 0.936422 0.457154 -0.141478
Cu1   Cu    Cu3+1 0.640660 0.500020 0.500000 1.035943
Cu2   Cu    Cu3+1 0.359340 0.499980 0.500000 1.036073
H1    H     H_    0.674010 0.390817 0.267568 0.216008
H2    H     H_    0.346162 0.373236 0.739628 0.212007
H3    H     H_    0.716728 0.584932 0.750945 0.211060
H4    H     H_    0.265880 0.563625 0.243488 0.246782
H5    H     H_    0.331729 0.112321 0.576554 0.173459
H6    H     H_    0.668212 0.887717 0.423387 0.174733
H7    H     H_    0.330251 0.885252 0.576631 0.183787
H8    H     H_    0.669492 0.114814 0.423166 0.185294
H9    H     H_    0.151909 0.339546 0.573239 0.198090
H10   H     H_    0.848219 0.660552 0.426791 0.202286
N1    N     N_2   0.558962 0.450797 0.986069 -0.097295
N2    N     N_2   0.446116 0.447105 0.017009 -0.085220
N3    N     N_R   0.852070 0.500030 0.499980 -0.257093
N4    N     N_R   0.147930 0.499970 0.500020 -0.254646
O1    O     O_R   0.618740 0.319660 0.500000 -0.516126
O2    O     O_R   0.381260 0.680340 0.500000 -0.509595
O3    O     O_R   0.381170 0.319630 0.500010 -0.598484
O4    O     O_R   0.618830 0.680370 0.499990 -0.598639
O5    O     O_R   0.631780 0.498870 0.613920 -0.521169
O6    O     O_R   0.368220 0.501130 0.386080 -0.523262
O7    O     O_R   0.394210 0.498840 0.613930 -0.594660
O8    O     O_R   0.605790 0.501160 0.386070 -0.592220
S1    S     S_3+6 0.713382 0.310186 0.117090 0.092734
O9    O     O_2   0.818169 0.394682 0.083664 -0.156125
O10   O     O_2   0.784129 0.232265 0.185093 -0.261983
O11   O     O_3   0.653306 0.215094 0.047793 -0.455206
H11   H     H_    0.737471 0.183640 0.024145 0.395629
S2    S     S_3+6 0.317163 0.293139 0.895945 0.089888
O12   O     O_2   0.195125 0.369060 0.919167 -0.189183
O13   O     O_2   0.265931 0.206076 0.834483 -0.246127
O14   O     O_3   0.388713 0.207952 0.974844 -0.455642
H12   H     H_    0.308845 0.170995 0.999975 0.393235
S3    S     S_3+6 0.787964 0.593010 0.915180 0.098534
O15   O     O_2   0.903619 0.496934 0.932270 -0.140457
O16   O     O_2   0.840499 0.699073 0.866040 -0.274772
O17   O     O_3   0.740758 0.646384 0.000722 -0.433066
H13   H     H_    0.663359 0.707379 0.985358 0.356097
S4    S     S_3+6 0.192150 0.561851 0.079165 0.122581
O18   O     O_2   0.104115 0.451296 0.063887 -0.152039
O19   O     O_2   0.112015 0.653653 0.123407 -0.216294
O20   O     O_3   0.231222 0.629773 0.992823 -0.487609
H14   H     H_    0.139894 0.651091 0.963748 0.419835
S5    S     S_3+6 0.882799 0.272168 0.594216 0.051245
O21   O     O_2   0.857135 0.174964 0.535008 -0.297786
O22   O     O_2   0.998626 0.223505 0.652953 -0.268750
O23   O     O_3   0.741349 0.289419 0.644702 -0.502697
H15   H     H_    0.716229 0.203811 0.660972 0.368820
S6    S     S_3+6 0.117240 0.728657 0.406718 0.045769
O24   O     O_2   0.002635 0.776153 0.346843 -0.271778
O25   O     O_2   0.139349 0.825877 0.466276 -0.294831
O26   O     O_3   0.261061 0.713489 0.358017 -0.524290
H16   H     H_    0.282999 0.799245 0.340204 0.371615

loop_
_geom_bond_atom_site_label_1
_geom_bond_atom_site_label_2
_ccdc_geom_bond_type
S4    O19   D    
C4    H8    S    
C5    C26   A    
C10   N4    A    
C11   O5    A    
S6    O26   S    
C12   O6    A    
C2    O4    A    
C19   C21   A    
S6    O25   D    
C20   N2    S    
C6    C25   A    
S2    O12   D    
C13   C23   A    
C7    C9    A    
C7    N4    A    
C14   C24   A    
S3    O16   D    
C22   S4    S    
C10   S6    S    
C26   H6    S    
C2    O2    A    
C14   C16   A    
C21   S3    S    
Cu1   O8    S    
S4    O18   D    
O14   H12   S    
S3    O15   D    
C8    H10   S    
C1    O1    A    
C18   S1    S    
Cu2   O3    S    
O23   H15   S    
S1    O9    D    
C3    C25   A    
C8    N3    A    
C4    C6    A    
N1    N2    D    
S5    O22   D    
C16   H1    S    
Cu2   O2    S    
C1    C6    S    
S1    O10   D    
C23   H3    S    
S3    O17   S    
C24   H4    S    
C11   O7    A    
Cu2   O7    S    
Cu1   N3    S    
C12   O8    A    
C3    H7    S    
C7    H9    S    
S6    O24   D    
C17   S2    S    
C19   N1    S    
Cu1   O4    S    
C16   C18   A    
C12   C14   S    
C13   C15   A    
C22   C24   A    
C2    C5    S    
C15   H2    S    
Cu1   O5    S    
C15   C17   A    
O11   H11   S    
Cu2   O6    S    
C9    S5    S    
C20   C22   A    
C3    C5    A    
S5    O23   S    
C4    C26   A    
C9    N3    A    
S2    O14   S    
S1    O11   S    
O17   H13   S    
C21   C23   A    
S5    O21   D    
C11   C13   S    
C1    O3    A    
Cu2   N4    S    
C17   C19   A    
S2    O13   D    
C18   C20   A    
O20   H14   S    
O26   H16   S    
S4    O20   S    
Cu1   O1    S    
C8    C10   A    
Cu1   Cu2   S    
C25   H5    S    
