data_str_m3_o5_o29_f0_pcu.sym.128
_audit_creation_date              2013-03-05T16:48:40-0500
_audit_creation_method            fapswitch 2.2
_symmetry_space_group_name_H-M    P1
_symmetry_Int_Tables_number       1
_space_group_crystal_system       triclinic
_cell_length_a                    27.18926
_cell_length_b                    8.913018
_cell_length_c                    8.072887
_cell_angle_alpha                 89.942466
_cell_angle_beta                  89.223635
_cell_angle_gamma                 90.293967
_cell_volume                      1956.16375373

loop_
_atom_site_label
_atom_site_type_symbol
_atom_site_description
_atom_site_fract_x
_atom_site_fract_y
_atom_site_fract_z
_atom_type_partial_charge
O1    O     O_R   0.500000 0.285350 0.636850 -0.622362
O2    O     O_R   0.500000 0.714650 0.363150 -0.595943
O3    O     O_R   0.500000 0.714650 0.636850 -0.646440
O4    O     O_R   0.500000 0.285350 0.363150 -0.617547
C1    C     C_R   0.499782 0.217869 0.500063 0.953463
C2    C     C_R   0.499352 0.782084 0.499932 0.975651
O5    O     O_R   0.428760 0.500000 0.636860 -0.651256
O6    O     O_R   0.571240 0.500000 0.363140 -0.592605
O7    O     O_R   0.571240 0.500000 0.636860 -0.637480
O8    O     O_R   0.428760 0.500000 0.363140 -0.606820
C3    C     C_R   0.405510 0.505152 0.501141 0.991982
C4    C     C_R   0.594663 0.500812 0.498871 0.968967
Zn1   Zn    Zn3+2 0.500000 0.500000 0.682780 0.958856
Zn2   Zn    Zn3+2 0.500000 0.500000 0.317220 1.010738
C5    C     C_R   0.184991 0.626613 0.260535 0.600017
C6    C     C_R   0.821783 0.707374 0.523244 0.610016
C7    C     C_R   0.182163 0.739157 0.528851 0.604136
C8    C     C_R   0.827710 0.493980 0.345542 0.577720
O9    O     O_2   0.212565 0.569885 0.135484 -0.479064
O10   O     O_2   0.793304 0.795554 0.620258 -0.499373
O11   O     O_2   0.206593 0.783428 0.664924 -0.484193
O12   O     O_2   0.804193 0.386927 0.258556 -0.541541
N1    N     N_R   0.207475 0.670712 0.402739 -0.362231
N2    N     N_R   0.800938 0.588113 0.444209 -0.341552
C9    C     C_R   0.292910 0.739111 0.462198 -0.190445
C10   C     C_R   0.730462 0.445500 0.554767 -0.198376
C11   C     C_R   0.270136 0.477256 0.436685 -0.209774
C12   C     C_R   0.717276 0.666054 0.385203 -0.228652
C13   C     C_R   0.340367 0.698338 0.505935 0.404033
C14   C     C_R   0.679728 0.425959 0.574539 0.367611
C15   C     C_R   0.317958 0.434246 0.477314 0.394431
C16   C     C_R   0.666401 0.650690 0.406813 0.425174
C17   C     C_R   0.257665 0.629348 0.428420 0.147872
C18   C     C_R   0.749061 0.565265 0.460490 0.166385
C19   C     C_R   0.106464 0.699131 0.380688 -0.232910
C20   C     C_R   0.901160 0.636670 0.409035 -0.181410
C21   C     C_R   0.133543 0.636246 0.246953 -0.075968
C22   C     C_R   0.872341 0.737703 0.503743 -0.072313
C23   C     C_R   0.130883 0.757937 0.519905 -0.079917
C24   C     C_R   0.879073 0.511499 0.331468 -0.195929
C25   C     C_R   0.108454 0.579047 0.107663 0.348542
C26   C     C_R   0.894511 0.866553 0.573672 0.342065
C27   C     C_R   0.103298 0.820705 0.652572 0.356152
C28   C     C_R   0.909037 0.407923 0.243670 0.434319
C29   C     C_R   0.353810 0.545476 0.500997 -0.279468
C30   C     C_R   0.647692 0.525342 0.494204 -0.267881
H1    H     H_    0.242346 0.392466 0.414187 0.162673
H2    H     H_    0.732492 0.756094 0.310129 0.165257
H3    H     H_    0.282926 0.856584 0.460271 0.173428
H4    H     H_    0.755471 0.367346 0.611824 0.178533
C31   C     C_R   0.980776 0.568682 0.286853 -0.071297
C32   C     C_R   0.027097 0.770598 0.502627 0.051697
C33   C     C_R   0.975202 0.774223 0.486511 0.061228
C34   C     C_R   0.030574 0.609689 0.257760 0.015756
C35   C     C_R   0.952318 0.659644 0.394181 -0.073783
C36   C     C_R   0.054774 0.694587 0.379687 -0.076898
C37   C     C_R   0.959273 0.436065 0.221177 0.486513
C38   C     C_R   0.051475 0.831521 0.641492 0.337419
C39   C     C_R   0.945794 0.889519 0.553919 0.408802
C40   C     C_R   0.056374 0.572172 0.110975 0.305751
C41   C     C_1   0.499290 0.065175 0.500065 -0.204092
C42   C     C_1   0.499099 0.934775 0.499849 -0.182899
N3    N     N_1   0.500000 0.500000 0.073640 -0.037544
N4    N     N_1   0.500000 0.500000 0.926360 -0.048901
O13   O     O_3   0.330325 0.284206 0.492007 -0.639960
C43   C     C_3   0.306699 0.221962 0.634213 0.102406
H5    H     H_    0.307225 0.098266 0.620619 0.175933
H6    H     H_    0.267098 0.252672 0.644081 0.149127
C44   C     C_3   0.333880 0.263440 0.793990 -0.390822
H7    H     H_    0.368942 0.200183 0.799288 0.225795
H8    H     H_    0.342848 0.385024 0.795844 0.231874
C45   C     C_3   0.302620 0.228947 0.948046 -0.859749
H9    H     H_    0.269656 0.302093 0.951408 0.298345
H10   H     H_    0.324445 0.250737 0.060914 0.279674
H11   H     H_    0.290439 0.110096 0.948836 0.269190
O14   O     O_3   0.634059 0.751811 0.336579 -0.629567
C46   C     C_3   0.641824 0.899473 0.396913 0.106435
H12   H     H_    0.618465 0.974631 0.321755 0.139876
H13   H     H_    0.679978 0.940933 0.374918 0.152388
C47   C     C_3   0.625432 0.918033 0.579480 -0.411960
H14   H     H_    0.609413 0.031637 0.596154 0.219107
H15   H     H_    0.596421 0.834665 0.611810 0.228248
C48   C     C_3   0.667874 0.902461 0.700372 -0.752541
H16   H     H_    0.682321 0.786400 0.700806 0.259922
H17   H     H_    0.654484 0.928545 0.827611 0.239010
H18   H     H_    0.698063 0.981914 0.667469 0.289389
O15   O     O_3   0.372872 0.811342 0.549437 -0.644252
C49   C     C_3   0.380229 0.815922 0.723872 0.044758
H19   H     H_    0.398299 0.925042 0.751036 0.174955
H20   H     H_    0.406613 0.729268 0.762286 0.186560
C50   C     C_3   0.333125 0.804075 0.832769 -0.390722
H21   H     H_    0.305850 0.887936 0.792297 0.246254
H22   H     H_    0.316375 0.690631 0.820903 0.243481
C51   C     C_3   0.344568 0.828873 0.015433 -0.861997
H23   H     H_    0.370102 0.741122 0.059947 0.267042
H24   H     H_    0.310005 0.822328 0.090048 0.285321
H25   H     H_    0.361577 0.941045 0.034009 0.264666
O16   O     O_3   0.661855 0.301858 0.659384 -0.655286
C52   C     C_3   0.652063 0.339850 0.826961 0.094572
H26   H     H_    0.617450 0.281623 0.864779 0.175263
H27   H     H_    0.645781 0.462244 0.848245 0.145888
C53   C     C_3   0.693603 0.285132 0.937740 -0.350605
H28   H     H_    0.700490 0.164253 0.914478 0.240399
H29   H     H_    0.727867 0.348702 0.908301 0.243599
C54   C     C_3   0.680631 0.306800 0.120673 -0.869596
H30   H     H_    0.674650 0.427535 0.147072 0.271888
H31   H     H_    0.711205 0.266001 0.198229 0.300611
H32   H     H_    0.646806 0.242630 0.154318 0.240462
O17   O     O_3   0.135162 0.525061 0.973747 -0.687628
H33   H     H_    0.116065 0.444345 0.919583 0.339539
O18   O     O_3   0.865841 0.968471 0.659856 -0.701130
H34   H     H_    0.886510 0.020562 0.742287 0.364984
O19   O     O_3   0.127306 0.866278 0.793934 -0.684230
H35   H     H_    0.105786 0.847379 0.891722 0.345138
O20   O     O_3   0.891275 0.272463 0.187261 -0.659537
H36   H     H_    0.872680 0.225437 0.280360 0.357492
O21   O     O_3   0.986893 0.321730 0.152424 -0.658444
H37   H     H_    0.019318 0.320354 0.206908 0.327288
O22   O     O_3   0.024000 0.884708 0.773807 -0.707982
H38   H     H_    0.041810 0.970796 0.822888 0.366999
O23   O     O_3   0.967177 0.028174 0.582160 -0.718996
H39   H     H_    0.941935 0.107282 0.571826 0.342067
O24   O     O_3   0.029701 0.537548 0.971336 -0.704144
H40   H     H_    0.049438 0.563897 0.871416 0.344876

loop_
_geom_bond_atom_site_label_1
_geom_bond_atom_site_label_2
_geom_bond_distance
_ccdc_geom_bond_type
C39   O23   1.383496 S    
C43   H6    1.114137 S    
O15   C49   1.425612 S    
C40   O24   1.382939 S    
O18   H34   0.991103 S    
O3    C2    1.258014 A    
C33   C39   1.410400 A    
O24   H40   0.990153 S    
C34   C40   1.410235 A    
C46   H12   1.110965 S    
C11   C17   1.400791 A    
O5    C3    1.273224 A    
C54   H31   1.109958 S    
C7    N1    1.367077 A    
O1    C1    1.258040 A    
C37   O21   1.381372 S    
C19   C21   1.416247 A    
C22   C26   1.415766 A    
C44   H7    1.111339 S    
C10   H4    1.082824 S    
C43   C44   1.539676 S    
O20   H36   0.991494 S    
C53   C54   1.526364 S    
C7    C23   1.407926 A    
C44   H8    1.109713 S    
O7    Zn1   1.967176 S    
C5    C21   1.407641 A    
C8    C24   1.407479 A    
C27   C38   1.416837 A    
C5    O9    1.349550 S    
C10   C18   1.398881 A    
C52   H26   1.111364 S    
C28   O20   1.378185 S    
N1    C17   1.433108 S    
C31   C37   1.422198 A    
C24   C28   1.418342 A    
O3    Zn1   1.948412 S    
C6    O10   1.349713 S    
C51   H24   1.110562 S    
C46   H13   1.111384 S    
C43   H5    1.108209 S    
C12   C18   1.394404 A    
C6    N2    1.365001 A    
C25   O17   1.382380 S    
C21   C25   1.417070 A    
O2    C2    1.257690 A    
C45   H11   1.108250 S    
C33   C35   1.411815 A    
C9    C13   1.392300 A    
C54   H32   1.110967 S    
C34   C36   1.410086 A    
C11   C15   1.400552 A    
C53   H28   1.110242 S    
C20   C24   1.414963 A    
O14   C46   1.419572 S    
C45   H9    1.111040 S    
C45   H10   1.110810 S    
O8    Zn2   1.967178 S    
C50   H21   1.107780 S    
C47   H14   1.111893 S    
C23   C27   1.416442 A    
C51   H25   1.110587 S    
N2    C18   1.428362 S    
C13   C29   1.412921 A    
C44   C45   1.526956 S    
C19   C23   1.412975 A    
C26   O18   1.382303 S    
C50   H22   1.111586 S    
C48   H16   1.108425 S    
C49   C50   1.546664 S    
C12   C16   1.397874 A    
C28   C37   1.396872 A    
O6    C4    1.274815 A    
C48   H18   1.110651 S    
C1    C41   1.360964 S    
C51   H23   1.111135 S    
C53   H29   1.110734 S    
O23   H39   0.990725 S    
C32   C38   1.417256 A    
C4    C30   1.457179 S    
C48   H17   1.110359 S    
C49   H20   1.103856 S    
C10   C14   1.396463 A    
C8    N2    1.363874 A    
C3    C29   1.452708 S    
O1    Zn1   1.949144 S    
C32   C33   1.419264 A    
C47   C48   1.528144 S    
O19   H35   0.990025 S    
C46   C47   1.543262 S    
C11   H1    1.083139 S    
C15   O13   1.385972 S    
C12   H2    1.082292 S    
O6    Zn2   1.977043 S    
C52   H27   1.118153 S    
C19   C36   1.405908 A    
C8    O12   1.348952 S    
C16   C30   1.409808 A    
C14   C30   1.409255 A    
C25   C40   1.416914 A    
O4    C1    1.257731 A    
C26   C39   1.415107 A    
C16   O14   1.388408 S    
O22   H38   0.991082 S    
C54   H30   1.109593 S    
C14   O16   1.383017 S    
C31   C34   1.417063 A    
C2    C42   1.360989 S    
C20   C22   1.414863 A    
C20   C35   1.408385 A    
O21   H37   0.990695 S    
C27   O19   1.382680 S    
C50   C51   1.527265 S    
Zn1   N4    1.966394 S    
Zn2   N3    1.966394 S    
C5    N1    1.365124 A    
C38   O22   1.380868 S    
C47   H15   1.109266 S    
C31   C35   1.412952 A    
O13   C43   1.418956 S    
O4    Zn2   1.948413 S    
C41   C42   1.162249 T    
O2    Zn2   1.949144 S    
O7    C4    1.275642 A    
C9    H3    1.083159 S    
C13   O15   1.385233 S    
O8    C3    1.274429 A    
N3    N4    1.188974 T    
O5    Zn1   1.977045 S    
C52   C53   1.531464 S    
C49   H19   1.110778 S    
O16   C52   1.416958 S    
C15   C29   1.401847 A    
C6    C22   1.406299 A    
O17   H33   0.990621 S    
C32   C36   1.413021 A    
C9    C17   1.395625 A    
C7    O11   1.349663 S    
