data_str_m2_o10_o28_f0_pcu.sym.209
_audit_creation_date              2012-12-10T16:50:14-0500
_audit_creation_method            fapswitch 2.2
_symmetry_space_group_name_H-M    P1
_symmetry_Int_Tables_number       1
_space_group_crystal_system       triclinic
_cell_length_a                    23.461276
_cell_length_b                    8.683441
_cell_length_c                    7.432935
_cell_angle_alpha                 103.015509
_cell_angle_beta                  93.710355
_cell_angle_gamma                 92.566406
_cell_volume                      1469.53062076

loop_
_atom_site_label
_atom_site_type_symbol
_atom_type_description
_atom_site_fract_x
_atom_site_fract_y
_atom_site_fract_z
_atom_type_partial_charge
C1    C     C_R   0.498323 0.199650 0.453169 0.893479
C2    C     C_R   0.501397 0.800324 0.546850 0.924657
C3    C     C_R   0.240952 0.599705 0.391890 -0.057403
C4    C     C_R   0.757077 0.362762 0.464124 -0.031690
C5    C     C_R   0.300042 0.590076 0.395109 -0.203265
C6    C     C_R   0.697786 0.363168 0.467473 -0.236246
C7    C     C_R   0.328450 0.502867 0.507739 -0.158798
C8    C     C_R   0.670655 0.506014 0.490098 -0.157896
C9    C     C_R   0.296187 0.422160 0.616968 0.328875
C10   C     C_R   0.703179 0.650241 0.508225 0.410250
C11   C     C_R   0.236767 0.432483 0.611283 -0.141680
C12   C     C_R   0.762690 0.648224 0.505032 -0.146973
C13   C     C_R   0.209016 0.520605 0.499627 0.256776
C14   C     C_R   0.789621 0.505370 0.483880 0.253173
C15   C     C_2   0.497182 0.031720 0.426878 -0.378008
C16   C     C_2   0.502077 0.968233 0.573231 -0.269705
C17   C     C_R   0.390947 0.497720 0.502783 0.843936
C18   C     C_R   0.608689 0.501838 0.497020 0.883585
C19   C     C_R   0.882864 0.565273 0.649136 0.557261
C20   C     C_R   0.115609 0.468090 0.330686 0.553656
C21   C     C_R   0.875546 0.451921 0.323420 0.563538
C22   C     C_R   0.122751 0.586155 0.655258 0.560853
C23   C     C_R   0.935340 0.455766 0.321440 -0.024626
C24   C     C_R   0.062998 0.583482 0.656642 -0.020674
C25   C     C_R   0.969084 0.516893 0.488318 -0.013920
C26   C     C_R   0.029305 0.522172 0.489855 -0.014424
C27   C     C_R   0.942755 0.572392 0.653809 -0.028494
C28   C     C_R   0.055677 0.465379 0.324837 -0.025705
C29   C     C_R   0.962072 0.400722 0.157288 -0.159866
C30   C     C_R   0.036286 0.639363 0.820657 -0.159732
C31   C     C_R   0.021628 0.405173 0.159047 -0.174238
C32   C     C_R   0.976768 0.633640 0.819297 -0.174733
Cu1   Cu    Cu3+1 0.506340 0.517380 0.684380 1.055187
Cu2   Cu    Cu3+1 0.493660 0.482620 0.315620 1.036285
H1    H     H_    0.937107 0.353850 0.027061 0.197935
H2    H     H_    0.061235 0.686596 0.950831 0.195335
H3    H     H_    0.040850 0.361184 0.030176 0.194876
H4    H     H_    0.957548 0.677065 0.948307 0.195240
H5    H     H_    0.219950 0.668708 0.305513 0.181231
H6    H     H_    0.777830 0.252096 0.448056 0.183438
H7    H     H_    0.323835 0.652644 0.310497 0.190114
H8    H     H_    0.672982 0.252216 0.453462 0.186364
H9    H     H_    0.211443 0.370747 0.692863 0.202155
H10   H     H_    0.788580 0.757282 0.519309 0.187309
H11   H     H_    0.492481 0.959984 0.285900 0.184459
H12   H     H_    0.506822 0.039957 0.714211 0.191781
H13   H     H_    0.458132 0.371200 0.947714 0.290161
H14   H     H_    0.543114 0.626085 0.051824 0.258493
N1    N     N_R   0.850705 0.506278 0.485600 -0.463971
N2    N     N_R   0.147851 0.527098 0.494436 -0.460398
N3    N     N_2   0.484110 0.456420 0.038520 -0.197237
N4    N     N_2   0.515890 0.543580 0.961480 -0.215209
O1    O     O_R   0.504120 0.286130 0.619770 -0.569184
O2    O     O_R   0.495880 0.713870 0.380230 -0.588173
O3    O     O_R   0.493410 0.256770 0.308360 -0.588469
O4    O     O_R   0.506590 0.743230 0.691640 -0.572558
O5    O     O_R   0.423230 0.514630 0.655730 -0.536411
O6    O     O_R   0.576770 0.485370 0.344270 -0.570041
O7    O     O_R   0.412530 0.485280 0.344320 -0.556704
O8    O     O_R   0.587470 0.514720 0.655680 -0.555674
O9    O     O_2   0.856873 0.616403 0.806627 -0.496465
O10   O     O_2   0.141411 0.409544 0.174733 -0.505599
O11   O     O_2   0.842467 0.395681 0.164667 -0.490447
O12   O     O_2   0.155577 0.647478 0.813365 -0.509645
S1    S     S_3+6 0.327160 0.304617 0.758778 0.013725
O13   O     O_2   0.350960 0.412098 0.938021 -0.262993
O14   O     O_2   0.282764 0.189773 0.800173 -0.262254
O15   O     O_3   0.379969 0.202511 0.655566 -0.548688
H15   H     H_    0.361743 0.138935 0.536453 0.335474
S2    S     S_3+6 0.670625 0.833142 0.534005 -0.000130
O16   O     O_2   0.637143 0.859857 0.702800 -0.286539
O17   O     O_2   0.715161 0.967202 0.554341 -0.305737
O18   O     O_3   0.626011 0.826928 0.345823 -0.550737
H16   H     H_    0.615803 0.937771 0.355363 0.361738

loop_
_geom_bond_atom_site_label_1
_geom_bond_atom_site_label_2
_ccdc_geom_bond_type
O18   H16   S    
C21   N1    A    
Cu1   N4    S    
Cu2   N3    S    
C23   C29   A    
C24   C26   A    
C14   N1    S    
C15   C16   D    
C1    O1    A    
C20   N2    A    
C18   O6    A    
C4    H6    S    
O15   H15   S    
C7    C17   S    
C11   H9    S    
S2    O16   D    
C1    C15   S    
C32   H4    S    
C2    C16   S    
C3    C13   A    
C22   N2    A    
Cu1   O4    S    
C3    H5    S    
Cu2   O3    S    
C4    C14   A    
C9    S1    S    
Cu1   O1    S    
N3    N4    D    
C4    C6    A    
C2    O2    A    
C16   H12   S    
C5    C7    A    
H13   N3    S    
C20   C28   A    
S1    O14   D    
C25   C26   A    
C8    C18   S    
C31   H3    S    
C19   N1    A    
S1    O15   S    
S2    O18   S    
Cu1   Cu2   S    
C9    C11   A    
C10   C12   A    
C17   O7    A    
C10   S2    S    
C18   O8    A    
C12   C14   A    
Cu2   O2    S    
Cu1   O8    S    
C21   C23   A    
Cu2   O7    S    
C22   C24   A    
C15   H11   S    
C19   C27   A    
C7    C9    A    
C5    H7    S    
Cu1   O5    S    
C27   C32   A    
C28   C31   A    
C3    C5    A    
C6    C8    A    
C25   C27   A    
C29   H1    S    
C26   C28   A    
C30   H2    S    
C1    O3    A    
C29   C31   A    
C2    O4    A    
C30   C32   A    
C11   C13   A    
C19   O9    S    
C23   C25   A    
C20   O10   S    
C24   C30   A    
C21   O11   S    
C22   O12   S    
C13   N2    S    
H14   N4    S    
C8    C10   A    
S1    O13   D    
C6    H8    S    
Cu2   O6    S    
C12   H10   S    
S2    O17   D    
C17   O5    A    
