data_str_m3_o1_o16_f0_pcu.sym.68
_audit_creation_date              2013-03-05T16:10:15-0500
_audit_creation_method            fapswitch 2.2
_symmetry_space_group_name_H-M    P1
_symmetry_Int_Tables_number       1
_space_group_crystal_system       triclinic
_cell_length_a                    9.974749
_cell_length_b                    10.575104
_cell_length_c                    13.091497
_cell_angle_alpha                 91.028867
_cell_angle_beta                  72.046898
_cell_angle_gamma                 91.423343
_cell_volume                      1313.22187638

loop_
_atom_site_label
_atom_site_type_symbol
_atom_site_description
_atom_site_fract_x
_atom_site_fract_y
_atom_site_fract_z
_atom_type_partial_charge
O1    O     O_R   0.385370 0.683250 0.500010 -0.617194
O2    O     O_R   0.614700 0.683220 0.500010 -0.592346
C1    C     C_R   0.500229 0.739339 0.502906 0.957139
O3    O     O_R   0.328400 0.499990 0.653620 -0.521392
O4    O     O_R   0.557730 0.499960 0.653620 -0.607375
C2    C     C_R   0.424282 0.472000 0.698487 0.933580
Zn1   Zn    Zn3+2 0.346870 0.500020 0.500000 1.101595
Zn2   Zn    Zn3+2 0.653130 0.499980 0.500000 1.020473
O5    O     O_R   0.385300 0.316780 0.499990 -0.494223
O6    O     O_R   0.614630 0.316750 0.499990 -0.664981
O7    O     O_R   0.442270 0.500040 0.346380 -0.585249
O8    O     O_R   0.671600 0.500010 0.346380 -0.568052
C3    C     C_R   0.499118 0.260646 0.499107 0.890131
C4    C     C_R   0.577569 0.499970 0.296161 0.894450
C5    C     C_R   0.798415 0.450525 0.007325 -0.184211
H1    H     H_    0.831233 0.365096 0.807960 0.227031
H2    H     H_    0.907731 0.447319 0.959246 0.215390
C6    C     C_R   0.622734 0.485825 0.179261 -0.180341
C7    C     C_R   0.241194 0.383008 0.863562 0.434448
C8    C     C_R   0.199653 0.375123 0.975514 -0.118355
C9    C     C_R   0.296543 0.400750 0.030968 -0.206116
C10   C     C_R   0.441386 0.415970 0.973683 0.077781
C11   C     C_R   0.482606 0.405341 0.861166 0.052479
C12   C     C_R   0.548132 0.436757 0.022861 0.086399
C13   C     C_R   0.691502 0.425387 0.961169 0.111107
C14   C     C_R   0.725637 0.386417 0.854463 -0.153639
C15   C     C_R   0.622531 0.374983 0.805120 -0.134524
C16   C     C_R   0.516748 0.472032 0.130284 -0.257215
C17   C     C_R   0.765667 0.477838 0.116475 0.305642
C18   C     C_R   0.381236 0.419368 0.808206 -0.287025
H3    H     H_    0.409057 0.489227 0.177011 0.205294
H4    H     H_    0.257951 0.395878 0.117465 0.202968
H5    H     H_    0.092872 0.347497 0.019955 0.227415
H6    H     H_    0.653174 0.339703 0.723234 0.170805
C19   C     C_R   0.497468 0.939667 0.599178 0.448088
C20   C     C_R   0.496408 0.070049 0.596117 -0.215538
H7    H     H_    0.494040 0.126527 0.666595 0.173425
C21   C     C_R   0.496297 0.128379 0.501703 -0.032941
C22   C     C_R   0.499566 0.061092 0.408945 -0.070128
H8    H     H_    0.502571 0.108602 0.335689 0.166314
C23   C     C_R   0.502100 0.931587 0.410560 -0.223337
H9    H     H_    0.504758 0.877610 0.338740 0.163808
C24   C     C_R   0.501789 0.872094 0.504779 -0.155789
C25   C     C_R   0.941000 0.402767 0.455821 -0.082307
H10   H     H_    0.894966 0.325333 0.422325 0.214446
C26   C     C_R   0.083895 0.401198 0.453863 0.480635
N1    N     N_R   0.142790 0.500030 0.500030 -0.129920
C27   C     C_R   0.056021 0.597673 0.545204 -0.080766
H11   H     H_    0.096342 0.676097 0.581970 0.188797
C28   C     C_R   0.913235 0.597674 0.544964 -0.057512
H12   H     H_    0.847758 0.676464 0.581109 0.200649
N2    N     N_R   0.857180 0.499940 0.500010 -0.126345
N3    N     N_R   0.878633 0.495484 0.161500 0.201704
O9    O     O_R   0.966754 0.590215 0.130477 -0.380356
O10   O     O_R   0.912180 0.402903 0.212429 -0.391404
S1    S     S_3+6 0.171959 0.261094 0.394412 0.046925
O11   O     O_2   0.176931 0.172875 0.481788 -0.234277
O12   O     O_2   0.089775 0.195009 0.329370 -0.314601
O13   O     O_3   0.335170 0.289274 0.311809 -0.582953
H13   H     H_    0.348775 0.227400 0.251934 0.367312
S2    S     S_3+6 0.127963 0.320595 0.794420 -0.002396
O14   O     O_2   0.066758 0.428028 0.751232 -0.340826
O15   O     O_2   0.210734 0.238942 0.702751 -0.281969
O16   O     O_3   0.998857 0.231703 0.877219 -0.586840
H14   H     H_    0.963925 0.175198 0.829392 0.397497
S3    S     S_3+6 0.486150 0.864274 0.721453 0.042224
O17   O     O_2   0.618142 0.791596 0.708255 -0.310172
O18   O     O_2   0.468803 0.960340 0.810470 -0.271798
O19   O     O_3   0.346567 0.763638 0.753230 -0.544156
H15   H     H_    0.347876 0.723383 0.820671 0.382612

loop_
_geom_bond_atom_site_label_1
_geom_bond_atom_site_label_2
_geom_bond_distance
_ccdc_geom_bond_type
O4    Zn2   1.941732 S    
C28   N2    1.370948 A    
C16   H3    1.077857 S    
C5    H2    1.079010 S    
C11   C15   1.404261 A    
S1    O12   1.505303 D    
S2    O16   1.683140 S    
C19   C24   1.405969 A    
C23   H9    1.084733 S    
C4    C6    1.462042 S    
S3    O18   1.503994 D    
N1    C27   1.368207 A    
S1    O13   1.676519 S    
Zn2   O8    1.962176 S    
O16   H14   0.990560 S    
C25   N2    1.346420 A    
C27   C28   1.425226 A    
S3    O17   1.503079 D    
C14   C15   1.374839 A    
C6    C16   1.398891 A    
O13   H13   0.990659 S    
C22   C23   1.371059 A    
C6    C17   1.412964 A    
O1    Zn1   1.965990 S    
C9    C10   1.414396 A    
C8    C9    1.395340 A    
Zn1   O7    1.941733 S    
C23   C24   1.393812 A    
C1    C24   1.403451 S    
C3    C21   1.399137 S    
O19   H15   0.990856 S    
C17   N3    1.430746 S    
C7    S2    1.761357 S    
O3    Zn1   1.962175 S    
O4    C2    1.307276 A    
C20   C21   1.391581 A    
C20   H7    1.084463 S    
C2    C18   1.481208 S    
O8    C4    1.300792 A    
C5    C17   1.390725 A    
O2    C1    1.289788 A    
N3    O10   1.300891 A    
C15   H6    1.082190 S    
H1    C14   1.068863 S    
S2    O14   1.501159 D    
C9    H4    1.079583 S    
C10   C12   1.415074 A    
C5    C13   1.396585 A    
S3    O19   1.682074 S    
S1    O11   1.502292 D    
C8    H5    1.080247 S    
C11   C18   1.403001 A    
C12   C16   1.389415 A    
C21   C22   1.388423 A    
C12   C13   1.415941 A    
Zn2   O6    1.965992 S    
O3    C2    1.309184 A    
C26   S1    1.781669 S    
C22   H8    1.082549 S    
Zn1   O5    1.984642 S    
Zn2   N2    2.035398 S    
C26   N1    1.403016 A    
C27   H11   1.081511 S    
O5    C3    1.290960 A    
C19   S3    1.772232 S    
C28   H12   1.080315 S    
C13   C14   1.389341 A    
C10   C11   1.405154 A    
C7    C18   1.408398 A    
O7    C4    1.306380 A    
O6    C3    1.285975 A    
S2    O15   1.501614 D    
O2    Zn2   1.984642 S    
C25   H10   1.079932 S    
C7    C8    1.398203 A    
N3    O9    1.300747 A    
C25   C26   1.418158 A    
O1    C1    1.287664 A    
C19   C20   1.380496 A    
Zn1   N1    2.035528 S    
