data_str_m2_o14_o22_f0_pcu.sym.1
_audit_creation_date              2012-10-26T20:19:31-0400
_audit_creation_method            fapswitch 2.2
_symmetry_space_group_name_H-M    P1
_symmetry_Int_Tables_number       1
_space_group_crystal_system       triclinic
_cell_length_a                    10.737229
_cell_length_b                    10.772014
_cell_length_c                    9.616303
_cell_angle_alpha                 90.276475
_cell_angle_beta                  90.473501
_cell_angle_gamma                 92.710286
_cell_volume                      1110.939577

loop_
_atom_site_label
_atom_site_type_symbol
_atom_type_description
_atom_site_fract_x
_atom_site_fract_y
_atom_site_fract_z
_atom_type_partial_charge
C1    C     C_R   0.497297 0.262715 0.499726 0.586748
C2    C     C_R   0.393526 0.061001 0.567855 -0.026604
C3    C     C_R   0.490998 0.128431 0.498978 0.007928
C4    C     C_R   0.259830 0.499301 0.499796 0.549554
C5    C     C_R   0.583267 0.067441 0.426296 0.242415
C6    C     C_R   0.583404 0.938593 0.429952 -0.139725
C7    C     C_R   0.490333 0.870456 0.500350 -0.038624
C8    C     C_R   0.665376 0.666074 0.145918 -0.095092
C9    C     C_R   0.746499 0.746824 0.074849 -0.181768
C10   C     C_R   0.746555 0.746568 0.931518 -0.173608
C11   C     C_R   0.665423 0.665596 0.858382 -0.081888
C12   C     C_3   0.877734 0.502826 0.501706 0.012954
C13   C     C_R   0.581154 0.581563 0.926396 0.146764
C14   C     C_R   0.581121 0.581644 0.075827 0.133434
C15   C     C_R   0.423172 0.421509 0.072419 0.193317
C16   C     C_R   0.497345 0.737037 0.500213 0.518232
C17   C     C_R   0.423470 0.421964 0.924354 -0.006818
C18   C     C_R   0.739918 0.502709 0.500634 0.539551
C19   C     C_3   0.063164 0.368963 0.458443 0.161793
C20   C     C_3   0.918911 0.372831 0.457482 -0.176055
C21   C     C_3   0.073922 0.531945 0.648006 -0.277741
C22   C     C_3   0.075817 0.599419 0.397985 -0.214914
C23   C     C_3   0.931274 0.533569 0.648902 -0.254804
C24   C     C_3   0.121319 0.499560 0.500027 0.068677
C25   C     C_3   0.673671 0.120581 0.219877 -0.112805
C26   C     C_3   0.101970 0.202690 0.312462 -0.138895
C27   C     C_3   0.932444 0.601025 0.398642 -0.249760
C28   C     C_R   0.294795 0.120739 0.633258 -0.124209
C29   C     C_R   0.198055 0.051836 0.696620 -0.133054
C30   C     C_R   0.197178 0.922712 0.695630 -0.126561
C31   C     C_R   0.293272 0.861909 0.631636 -0.098141
C32   C     C_R   0.392894 0.929883 0.567748 0.015013
Cu1   Cu    Cu3+1 0.499990 0.499990 0.640660 0.903471
Cu2   Cu    Cu3+1 0.500010 0.500010 0.359340 0.974426
H1    H     H_    0.091899 0.302451 0.540330 0.078451
H2    H     H_    0.673451 0.673793 0.255611 0.173776
H3    H     H_    0.810016 0.809922 0.131782 0.105064
H4    H     H_    0.810093 0.809499 0.876251 0.108692
H5    H     H_    0.673164 0.672732 0.748799 0.180414
H6    H     H_    0.360601 0.358270 0.867521 0.107351
H7    H     H_    0.880988 0.349649 0.351887 0.176427
H8    H     H_    0.879350 0.300982 0.529628 0.105283
H9    H     H_    0.104343 0.462390 0.724985 0.119856
H10   H     H_    0.894362 0.464488 0.725812 0.141528
H11   H     H_    0.116269 0.692755 0.428485 0.095465
H12   H     H_    0.903222 0.695259 0.428370 0.098144
H13   H     H_    0.107576 0.580121 0.290495 0.171476
H14   H     H_    0.896667 0.581191 0.291513 0.138993
H15   H     H_    0.580175 0.143000 0.178551 0.133421
H16   H     H_    0.696963 0.025213 0.187870 0.105892
H17   H     H_    0.743191 0.186359 0.171920 0.134927
H18   H     H_    0.249629 0.353087 0.107407 0.232520
H19   H     H_    0.360076 0.246897 0.113827 0.186668
H20   H     H_    0.114486 0.177784 0.201606 0.128459
H21   H     H_    0.011296 0.158595 0.345841 0.119127
H22   H     H_    0.179921 0.164391 0.372639 0.136125
H23   H     H_    0.113695 0.624346 0.682208 0.123280
H24   H     H_    0.902732 0.626890 0.682919 0.119471
H25   H     H_    0.289452 0.220636 0.633581 0.120437
H26   H     H_    0.122787 0.098877 0.745336 0.098034
H27   H     H_    0.121258 0.869399 0.743663 0.099305
H28   H     H_    0.287625 0.761632 0.630977 0.132623
H29   H     H_    0.658447 0.891407 0.380601 0.106782
N1    N     N_R   0.501200 0.501210 0.147910 -0.215391
N2    N     N_R   0.501250 0.501290 0.852040 -0.256440
N3    N     N_3   0.339602 0.337193 0.143249 -0.534085
O1    O     O_R   0.499990 0.319640 0.618810 -0.513246
O2    O     O_3   0.104989 0.333567 0.325130 -0.564389
O3    O     O_R   0.500000 0.319660 0.381240 -0.444558
O4    O     O_R   0.317680 0.499970 0.618790 -0.539202
O5    O     O_R   0.317700 0.499990 0.381210 -0.439571
O6    O     O_R   0.500000 0.680340 0.618760 -0.522623
O7    O     O_R   0.500010 0.680360 0.381190 -0.527145
O8    O     O_R   0.682300 0.500010 0.618790 -0.522873
O9    O     O_R   0.682320 0.500030 0.381210 -0.523102
O10   O     O_3   0.681061 0.135403 0.365591 -0.578578

loop_
_geom_bond_atom_site_label_1
_geom_bond_atom_site_label_2
_ccdc_geom_bond_type
C27   H14   S    
C23   H24   S    
C18   O9    A    
C19   C20   S    
C16   O6    A    
C26   H21   S    
C4    O4    A    
C20   H7    S    
Cu1   N2    S    
C13   N2    A    
C12   C23   S    
C28   C29   A    
C5    C6    A    
C4    C24   S    
C2    C32   A    
C8    H2    S    
C25   H16   S    
Cu1   O6    S    
C21   H9    S    
C8    C9    A    
C15   N1    A    
C9    C10   A    
Cu2   O9    S    
C22   H13   S    
C18   O8    A    
C13   C14   A    
C31   H28   S    
C26   H20   S    
C9    H3    S    
C12   C27   S    
C16   O7    A    
C15   N3    S    
C1    O3    A    
C23   H10   S    
C1    C3    S    
C17   H6    S    
C6    H29   S    
C25   H17   S    
C21   H23   S    
C29   C30   A    
C31   C32   A    
C29   H26   S    
C14   N1    A    
C12   C20   S    
Cu2   N1    S    
Cu1   Cu2   S    
C19   O2    S    
C11   H5    S    
H19   N3    S    
Cu2   O3    S    
Cu1   O4    S    
C27   H12   S    
C7    C16   S    
C22   C27   S    
C21   C23   S    
C22   C24   S    
C21   C24   S    
H18   N3    S    
Cu1   O1    S    
C28   H25   S    
C15   C17   A    
C8    C14   A    
C7    C32   A    
C3    C5    A    
C26   H22   S    
C20   H8    S    
C6    C7    A    
C17   N2    A    
C10   H4    S    
C25   O10   S    
C26   O2    S    
C5    O10   S    
C19   C24   S    
C19   H1    S    
C11   C13   A    
C30   C31   A    
C1    O1    A    
C2    C3    A    
C25   H15   S    
C10   C11   A    
Cu2   O7    S    
Cu1   O8    S    
C22   H11   S    
C30   H27   S    
C12   C18   S    
C2    C28   A    
Cu2   O5    S    
C4    O5    A    
