data_str_m9_o13_o2_f0_sra.sym.11
_audit_creation_date              2012-12-11T14:57:52-0500
_audit_creation_method            fapswitch 2.2
_symmetry_space_group_name_H-M    P1
_symmetry_Int_Tables_number       1
_space_group_crystal_system       triclinic
_cell_length_a                    6.954668
_cell_length_b                    16.628475
_cell_length_c                    17.107638
_cell_angle_alpha                 100.411436
_cell_angle_beta                  90.390426
_cell_angle_gamma                 90.184754
_cell_volume                      1945.78271382

loop_
_atom_site_label
_atom_site_type_symbol
_atom_type_description
_atom_site_fract_x
_atom_site_fract_y
_atom_site_fract_z
_atom_type_partial_charge
O1    O     O_R   0.506180 0.438940 0.579430 -0.544632
O2    O     O_R   0.170520 0.406230 0.413590 -0.524054
O3    O     O_R   0.005180 0.561060 0.420570 -0.528847
C1    C     C_R   0.339127 0.383396 0.385165 0.696928
O4    O     O_R   0.176140 0.429310 0.578370 -0.537632
O5    O     O_R   0.010830 0.584300 0.586530 -0.539544
C2    C     C_R   0.346522 0.413589 0.604866 0.703475
O6    O     O_R   0.500520 0.415700 0.413470 -0.528846
O7    O     O_3   0.340830 0.550820 0.502480 -0.373579
V1    V     V_3+5 0.064040 0.490570 0.499540 1.488521
O8    O     O_R   0.681400 0.593770 0.586410 -0.543872
C3    C     C_R   0.850896 0.617281 0.614175 0.667911
O9    O     O_R   0.675790 0.570690 0.421630 -0.537004
C4    C     C_R   0.844427 0.586077 0.394849 0.776869
V2    V     V_3+5 0.564650 0.509430 0.500460 1.466497
O10   O     O_3   0.837730 0.449180 0.497520 -0.363421
C5    C     C_R   0.909673 0.864985 0.170021 -0.156196
C6    C     C_R   0.855970 0.633880 0.329518 -0.063222
C7    C     C_R   0.904361 0.644998 0.190425 -0.132074
C8    C     C_R   0.887780 0.595961 0.249253 0.016130
C9    C     C_R   0.847252 0.719738 0.348492 -0.228636
C10   C     C_R   0.868598 0.768232 0.289454 0.095501
C11   C     C_R   0.895592 0.730629 0.209756 0.168232
C12   C     C_R   0.914807 0.779153 0.150654 -0.243512
C13   C     C_R   0.881016 0.903420 0.249946 0.515057
C14   C     C_R   0.864509 0.853866 0.309275 -0.230545
H1    H     H_    0.930984 0.750256 0.089109 0.149698
H2    H     H_    0.925775 0.616117 0.129076 0.098835
H3    H     H_    0.849984 0.881261 0.371304 0.115680
H4    H     H_    0.826794 0.748933 0.409776 0.096464
C15   C     C_R   0.833267 0.913189 0.730576 -0.213730
C16   C     C_R   0.790333 0.932516 0.656553 0.512795
C17   C     C_R   0.766260 0.868304 0.591069 -0.229644
C18   C     C_R   0.784464 0.786989 0.600643 -0.210293
C19   C     C_R   0.831347 0.767026 0.675321 0.075725
C20   C     C_R   0.853540 0.831443 0.741700 0.000758
C21   C     C_R   0.864039 0.684874 0.684116 -0.147145
C22   C     C_R   0.925439 0.667980 0.758899 0.031317
C23   C     C_R   0.949540 0.732587 0.824845 0.036289
C24   C     C_R   0.905058 0.814034 0.817080 -0.138013
C25   C     C_R   0.964266 0.587110 0.768984 -0.151912
C26   C     C_R   0.036882 0.569411 0.840751 -0.071921
C27   C     C_R   0.067700 0.634192 0.905491 -0.037189
C28   C     C_R   0.019964 0.714309 0.897260 -0.133034
H5    H     H_    0.855923 0.963987 0.779112 0.126352
H6    H     H_    0.738283 0.880369 0.532006 0.112404
H7    H     H_    0.766577 0.740040 0.548414 0.112362
H8    H     H_    0.940912 0.536668 0.720239 0.153108
H9    H     H_    0.039978 0.762586 0.948291 0.132785
C29   C     C_R   0.266466 0.217631 0.402677 -0.218257
C30   C     C_R   0.233006 0.139417 0.416233 -0.242785
C31   C     C_R   0.265530 0.071459 0.356581 0.473459
C32   C     C_R   0.326058 0.083375 0.280892 -0.097795
C33   C     C_R   0.356912 0.164601 0.264258 -0.017491
C34   C     C_R   0.325835 0.232310 0.327819 0.062937
C35   C     C_R   0.413506 0.181392 0.187781 -0.152657
C36   C     C_R   0.433684 0.263813 0.176739 0.057221
C37   C     C_R   0.400453 0.329753 0.240577 0.048169
C38   C     C_R   0.351513 0.314067 0.316480 -0.133538
C39   C     C_R   0.481183 0.282219 0.101530 -0.124590
C40   C     C_R   0.490969 0.362578 0.089230 -0.217287
C41   C     C_R   0.453507 0.427499 0.150938 0.019095
C42   C     C_R   0.410722 0.411044 0.226404 -0.059310
H10   H     H_    0.240895 0.266874 0.452078 0.121136
H11   H     H_    0.180323 0.132514 0.474011 0.122614
H12   H     H_    0.508972 0.234893 0.050677 0.096915
H13   H     H_    0.525634 0.373783 0.030680 0.117514
H14   H     H_    0.381573 0.462313 0.273471 0.136620
C43   C     C_R   0.398970 0.136066 0.831606 -0.071693
C44   C     C_R   0.367694 0.364022 0.668374 -0.079809
C45   C     C_R   0.544731 0.339754 0.786629 0.480266
C46   C     C_R   0.505918 0.387848 0.728511 -0.223089
C47   C     C_R   0.269483 0.289721 0.665420 -0.178439
C48   C     C_R   0.313419 0.238645 0.720580 0.085843
C49   C     C_R   0.453394 0.263082 0.781126 0.054481
C50   C     C_R   0.496398 0.210900 0.835797 -0.181211
C51   C     C_R   0.261481 0.112796 0.770974 -0.127216
C52   C     C_R   0.220300 0.163022 0.715788 -0.141161
H15   H     H_    0.599347 0.229602 0.883505 0.152373
H16   H     H_    0.183588 0.055626 0.766888 0.127231
H17   H     H_    0.113462 0.143095 0.669896 0.144162
H18   H     H_    0.586379 0.443906 0.729501 0.133029
H19   H     H_    0.165113 0.270202 0.618389 0.111989
O11   O     O_R   0.265840 0.084300 0.086750 -0.547161
O12   O     O_R   0.589750 0.070740 0.921690 -0.545485
O13   O     O_R   0.755020 0.915730 0.913400 -0.538373
C53   C     C_R   0.419465 0.086062 0.894883 0.673576
O14   O     O_R   0.595830 0.093740 0.086480 -0.518916
O15   O     O_R   0.761150 0.938890 0.079360 -0.495094
C54   C     C_R   0.426981 0.115315 0.116287 0.758714
O16   O     O_R   0.259710 0.061140 0.920790 -0.541385
O17   O     O_3   0.425260 0.949200 0.997610 -0.356676
V3    V     V_3+5 0.702060 0.009430 0.000450 1.514344
O18   O     O_R   0.090530 0.929220 0.078150 -0.552412
C55   C     C_R   0.921912 0.914263 0.105546 0.772698
O19   O     O_R   0.084440 0.906220 0.913360 -0.544136
C56   C     C_R   0.915186 0.881735 0.886789 0.666939
V4    V     V_3+5 0.201450 0.990520 0.999290 1.477485
O20   O     O_3   0.928380 0.050800 0.002390 -0.374906
C57   C     C_2   0.084924 0.483169 0.845320 0.379528
H20   H     H_    0.154045 0.467363 0.897173 0.016459
O21   O     O_2   0.046871 0.427596 0.790308 -0.508539
C58   C     C_2   0.457605 0.512161 0.135295 0.331180
H21   H     H_    0.494564 0.523386 0.076638 0.047321
O22   O     O_2   0.419323 0.570287 0.187338 -0.517895
O23   O     O_3   0.229678 0.991580 0.367706 -0.558394
C59   C     C_3   0.286106 0.978555 0.443690 -0.317350
H22   H     H_    0.171393 0.998479 0.487739 0.153919
H23   H     H_    0.424791 0.009262 0.462807 0.116405
H24   H     H_    0.307003 0.912010 0.441002 0.179215
C60   C     C_2   0.360410 0.006764 0.224068 0.412083
H25   H     H_    0.250827 0.959785 0.214189 0.100204
O24   O     O_2   0.517708 0.991515 0.194798 -0.523197
O25   O     O_3   0.881760 0.988879 0.266809 -0.547655
C61   C     C_3   0.782226 0.021877 0.337066 -0.163293
H26   H     H_    0.872626 0.020889 0.390486 0.142022
H27   H     H_    0.643782 0.989761 0.342139 0.142231
H28   H     H_    0.748879 0.086802 0.335705 0.160320
O26   O     O_3   0.684006 0.363541 0.844680 -0.535089
C62   C     C_3   0.630975 0.438168 0.892919 -0.226650
H29   H     H_    0.481785 0.435796 0.915360 0.100735
H30   H     H_    0.647672 0.490343 0.861130 0.144904
H31   H     H_    0.728709 0.449890 0.945302 0.141670
C63   C     C_2   0.905443 0.505947 0.223150 0.351000
H32   H     H_    0.938253 0.481303 0.161522 0.043774
O27   O     O_2   0.882670 0.458142 0.268710 -0.533283
C64   C     C_2   0.149121 0.620259 0.982430 0.308824
H33   H     H_    0.130774 0.562265 0.001849 0.019932
O28   O     O_2   0.238930 0.674229 0.025605 -0.517815
O29   O     O_3   0.791664 0.015072 0.651276 -0.559566
C65   C     C_3   0.657377 0.033586 0.595285 -0.289869
H34   H     H_    0.516492 0.002642 0.599544 0.137681
H35   H     H_    0.717673 0.018503 0.534475 0.123360
H36   H     H_    0.630616 0.100412 0.607859 0.176696

loop_
_geom_bond_atom_site_label_1
_geom_bond_atom_site_label_2
_ccdc_geom_bond_type
C28   H9    S    
C25   C26   A    
C34   C38   A    
C6    C9    A    
C29   H10   S    
C47   C48   A    
C4    C6    S    
O2    C1    A    
C7    C8    A    
C50   H15   S    
C1    O6    A    
C65   H36   S    
C2    C44   S    
C16   O29   S    
O25   C61   S    
O17   V4    S    
C51   C52   A    
C31   C32   A    
C21   C22   A    
C19   C21   A    
C53   O16   A    
C15   C20   A    
O5    C3    A    
C22   C23   A    
O23   C59   S    
O18   V4    S    
C61   H26   S    
C35   C36   A    
C43   C50   A    
C18   C19   A    
C30   H11   S    
C3    C21   S    
O13   C56   A    
C57   H20   S    
C10   C14   A    
C42   H14   S    
O8    V2    S    
C19   C20   A    
C61   H27   S    
O19   V4    S    
C59   H22   S    
C12   H1    S    
C5    C55   S    
O7    V1    S    
V3    O20   S    
C43   C53   S    
C62   H31   S    
C32   C60   S    
C35   C54   S    
C39   H12   S    
O9    C4    A    
O15   V3    S    
C17   H6    S    
C59   H23   S    
O18   C55   A    
O11   C54   A    
C62   H30   S    
C17   C18   A    
O12   C53   A    
C33   C35   A    
C5    C12   A    
C48   C49   A    
C30   C31   A    
C20   C24   A    
C22   C25   A    
C60   O24   D    
C27   C64   S    
C23   C24   A    
O4    C2    A    
C36   C39   A    
C13   C14   A    
C32   C33   A    
C39   C40   A    
O15   C55   A    
C7    C11   A    
C49   C50   A    
C64   O28   D    
C41   C42   A    
O13   V3    S    
C26   C57   S    
C40   H13   S    
O12   V3    S    
C11   C12   A    
C61   H28   S    
O19   C56   A    
C44   C47   A    
C57   O21   D    
C29   C30   A    
C58   O22   D    
C7    H2    S    
O3    C4    A    
O1    V2    S    
O14   C54   A    
O6    V2    S    
O9    V2    S    
C27   C28   A    
C15   H5    S    
C59   H24   S    
C26   C27   A    
C64   H33   S    
O2    V1    S    
C24   C56   S    
C62   H29   S    
C63   O27   D    
C41   C58   S    
C51   H16   S    
C37   C42   A    
O14   V3    S    
C60   H25   S    
O1    C2    A    
C15   C16   A    
C65   H35   S    
C65   H34   S    
O5    V1    S    
C33   C34   A    
O26   C62   S    
C23   C28   A    
C9    H4    S    
C29   C34   A    
C45   O26   S    
O11   V4    S    
C16   C17   A    
O29   C65   S    
C37   C38   A    
C5    C13   A    
C45   C46   A    
O3    V1    S    
V1    O10   S    
C13   O25   S    
C45   C49   A    
C52   H17   S    
C43   C51   A    
C36   C37   A    
C1    C38   S    
O17   V3    S    
C25   H8    S    
C6    C8    A    
O16   V4    S    
O7    V2    S    
C40   C41   A    
C8    C63   S    
C31   O23   S    
O4    V1    S    
C14   H3    S    
V4    O20   S    
C48   C52   A    
C58   H21   S    
C10   C11   A    
C44   C46   A    
C18   H7    S    
C9    C10   A    
C47   H19   S    
C46   H18   S    
V2    O10   S    
O8    C3    A    
C63   H32   S    
