data_str_m3_o40_o40_f0_fof.sym.67
_audit_creation_date              2012-12-10T16:37:26-0500
_audit_creation_method            fapswitch 2.2
_symmetry_space_group_name_H-M    P1
_symmetry_Int_Tables_number       1
_space_group_crystal_system       triclinic
_cell_length_a                    16.84852
_cell_length_b                    16.848519
_cell_length_c                    16.848519
_cell_angle_alpha                 65.772609
_cell_angle_beta                  65.77261
_cell_angle_gamma                 65.772611
_cell_volume                      3805.34667249

loop_
_atom_site_label
_atom_site_type_symbol
_atom_type_description
_atom_site_fract_x
_atom_site_fract_y
_atom_site_fract_z
_atom_type_partial_charge
C1    C     C_R   0.437292 0.970097 0.680885 -0.321609
C2    C     C_R   0.399208 0.668536 0.046482 -0.322024
C3    C     C_2   0.381303 0.757090 0.141375 0.447171
C4    C     C_2   0.116808 0.507574 0.185259 0.491960
C5    C     C_2   0.141374 0.381303 0.757090 0.447171
C6    C     C_R   0.029902 0.562708 0.319115 -0.321609
C7    C     C_R   0.046480 0.399209 0.668536 -0.322024
C8    C     C_R   0.961128 0.179142 0.438641 1.028184
C9    C     C_R   0.020935 0.823179 0.569126 0.982061
C10   C     C_R   0.179142 0.438641 0.961128 1.028183
C11   C     C_R   0.823179 0.569126 0.020935 0.982061
C12   C     C_R   0.438641 0.961128 0.179142 1.028185
C13   C     C_R   0.569126 0.020935 0.823179 0.982062
C14   C     C_R   0.561359 0.820858 0.038872 1.028185
C15   C     C_R   0.600791 0.953520 0.331463 -0.322024
C16   C     C_R   0.430874 0.176821 0.979065 0.982062
C17   C     C_R   0.038872 0.561359 0.820858 1.028182
C18   C     C_R   0.979065 0.430874 0.176821 0.982061
C19   C     C_R   0.820858 0.038872 0.561359 1.028184
C20   C     C_R   0.176821 0.979065 0.430874 0.982061
C21   C     C_R   0.494759 0.958060 0.728361 -0.008438
C22   C     C_R   0.558266 0.923380 0.297158 0.003059
C23   C     C_R   0.958060 0.728361 0.494760 -0.008438
C24   C     C_R   0.923380 0.297158 0.558266 0.003059
C25   C     C_R   0.728361 0.494759 0.958060 -0.008438
C26   C     C_R   0.970097 0.680885 0.437292 -0.321609
C27   C     C_R   0.297157 0.558266 0.923381 0.003059
C28   C     C_R   0.271639 0.041940 0.505241 -0.008438
C29   C     C_R   0.702842 0.076620 0.441734 0.003059
C30   C     C_R   0.505241 0.271639 0.041940 -0.008438
C31   C     C_R   0.441734 0.702842 0.076621 0.003059
C32   C     C_R   0.041940 0.505241 0.271639 -0.008438
C33   C     C_R   0.076620 0.441734 0.702842 0.003059
C34   C     C_R   0.551577 0.011854 0.539979 0.025295
C35   C     C_R   0.460020 0.988146 0.448423 0.025295
C36   C     C_R   0.011854 0.539979 0.551577 0.025295
C37   C     C_R   0.953520 0.331463 0.600791 -0.322024
C38   C     C_R   0.988146 0.448423 0.460021 0.025295
C39   C     C_R   0.539979 0.551577 0.011855 0.025295
C40   C     C_R   0.448422 0.460020 0.988147 0.025295
C41   C     C_R   0.592641 0.013296 0.447960 0.071889
C42   C     C_R   0.414316 0.002330 0.534674 0.066797
C43   C     C_R   0.013296 0.447960 0.592641 0.071889
C44   C     C_R   0.002330 0.534674 0.414316 0.066797
C45   C     C_R   0.447960 0.592641 0.013297 0.071889
C46   C     C_R   0.534674 0.414316 0.002331 0.066797
C47   C     C_R   0.552039 0.986704 0.407359 0.071889
C48   C     C_R   0.680885 0.437292 0.970098 -0.321609
C49   C     C_R   0.465326 0.997670 0.585684 0.066797
C50   C     C_R   0.407358 0.552039 0.986706 0.071889
C51   C     C_R   0.585684 0.465326 0.997671 0.066797
C52   C     C_R   0.986704 0.407359 0.552040 0.071889
C53   C     C_R   0.997670 0.585684 0.465326 0.066797
C54   C     C_R   0.565364 0.001295 0.683103 0.076315
C55   C     C_R   0.461140 0.945804 0.325183 0.082694
C56   C     C_R   0.001295 0.683103 0.565364 0.076315
C57   C     C_R   0.945804 0.325183 0.461140 0.082694
C58   C     C_R   0.683103 0.565364 0.001296 0.076315
C59   C     C_R   0.331463 0.600791 0.953522 -0.322024
C60   C     C_R   0.325182 0.461140 0.945804 0.082695
C61   C     C_R   0.316896 0.998705 0.434636 0.076315
C62   C     C_R   0.674817 0.054196 0.538860 0.082694
C63   C     C_R   0.434636 0.316896 0.998705 0.076315
C64   C     C_R   0.538860 0.674817 0.054197 0.082694
C65   C     C_R   0.998705 0.434636 0.316897 0.076315
C66   C     C_R   0.054196 0.538860 0.674817 0.082694
C67   C     C_R   0.605984 0.023579 0.728150 -0.105926
C68   C     C_R   0.409177 0.943109 0.277309 -0.037536
C69   C     C_R   0.023579 0.728150 0.605984 -0.105926
C70   C     C_R   0.319115 0.029903 0.562708 -0.321608
C71   C     C_R   0.943109 0.277309 0.409177 -0.037536
C72   C     C_R   0.728150 0.605984 0.023579 -0.105927
C73   C     C_R   0.277309 0.409177 0.943109 -0.037537
C74   C     C_R   0.271850 0.976421 0.394016 -0.105926
C75   C     C_R   0.722691 0.056891 0.590823 -0.037536
C76   C     C_R   0.394016 0.271850 0.976421 -0.105926
C77   C     C_R   0.590823 0.722691 0.056891 -0.037536
C78   C     C_R   0.976421 0.394016 0.271850 -0.105926
C79   C     C_R   0.056891 0.590823 0.722691 -0.037537
C80   C     C_R   0.682149 0.052877 0.680826 -0.286954
C81   C     C_R   0.668536 0.046480 0.399209 -0.322025
C82   C     C_R   0.319174 0.947123 0.317851 -0.286953
C83   C     C_R   0.052877 0.680825 0.682149 -0.286953
C84   C     C_R   0.947123 0.317851 0.319174 -0.286954
C85   C     C_R   0.680825 0.682149 0.052877 -0.286953
C86   C     C_R   0.317851 0.319174 0.947123 -0.286953
C87   C     C_R   0.596710 0.023676 0.587133 0.032817
C88   C     C_R   0.412867 0.976324 0.403290 0.032817
C89   C     C_R   0.023676 0.587133 0.596710 0.032817
C90   C     C_R   0.976324 0.403290 0.412867 0.032817
C91   C     C_R   0.587133 0.596710 0.023676 0.032817
C92   C     C_R   0.562708 0.319114 0.029903 -0.321609
C93   C     C_R   0.403290 0.412867 0.976325 0.032817
C94   C     C_2   0.492426 0.883192 0.814741 0.491960
C95   C     C_2   0.618697 0.858626 0.242910 0.447171
C96   C     C_2   0.883192 0.814741 0.492426 0.491959
C97   C     C_2   0.858626 0.242910 0.618697 0.447171
C98   C     C_2   0.814741 0.492426 0.883192 0.491960
C99   C     C_2   0.242910 0.618697 0.858626 0.447169
C100  C     C_2   0.185258 0.116808 0.507574 0.491960
C101  C     C_2   0.757090 0.141374 0.381303 0.447171
C102  C     C_2   0.507574 0.185258 0.116808 0.491960
H1    H     H_    0.378775 0.944165 0.716935 0.139063
H2    H     H_    0.326080 0.694312 0.058945 0.130979
H3    H     H_    0.055835 0.621225 0.283065 0.139063
H4    H     H_    0.058943 0.326081 0.694313 0.130979
H5    H     H_    0.715375 0.064620 0.716497 0.198544
H6    H     H_    0.283503 0.935380 0.284625 0.198544
H7    H     H_    0.064620 0.716497 0.715375 0.198544
H8    H     H_    0.935380 0.284625 0.283503 0.198544
H9    H     H_    0.716497 0.715375 0.064620 0.198544
H10   H     H_    0.284625 0.283503 0.935380 0.198544
H11   H     H_    0.430015 0.864566 0.855936 0.020308
H12   H     H_    0.673919 0.941057 0.305687 0.130979
H13   H     H_    0.689641 0.856663 0.209097 0.023933
H14   H     H_    0.864566 0.855937 0.430015 0.020308
H15   H     H_    0.856663 0.209097 0.689642 0.023933
H16   H     H_    0.855936 0.430015 0.864566 0.020308
H17   H     H_    0.209100 0.689642 0.856662 0.023934
H18   H     H_    0.144063 0.135433 0.569986 0.020307
H19   H     H_    0.790902 0.143338 0.310358 0.023933
H20   H     H_    0.569985 0.144063 0.135434 0.020307
H21   H     H_    0.310358 0.790903 0.143338 0.023933
H22   H     H_    0.135434 0.569986 0.144063 0.020308
H23   H     H_    0.944164 0.716935 0.378775 0.139063
H24   H     H_    0.143337 0.310358 0.790903 0.023933
H25   H     H_    0.941057 0.305687 0.673919 0.130979
H26   H     H_    0.716935 0.378775 0.944165 0.139064
H27   H     H_    0.305686 0.673919 0.941059 0.130979
H28   H     H_    0.283065 0.055835 0.621225 0.139063
H29   H     H_    0.694313 0.058943 0.326081 0.130979
H30   H     H_    0.621225 0.283065 0.055836 0.139064
O1    O     O_R   0.982940 0.138950 0.510160 -0.638012
O2    O     O_R   0.982940 0.510160 0.138950 -0.644534
O3    O     O_R   0.861050 0.017060 0.489840 -0.638011
O4    O     O_R   0.138950 0.982940 0.510160 -0.644534
O5    O     O_R   0.867700 0.025880 0.612340 -0.634437
O6    O     O_R   0.132300 0.974120 0.387660 -0.632305
O7    O     O_R   0.025880 0.612340 0.867700 -0.634437
O8    O     O_R   0.974120 0.387660 0.132300 -0.632305
O9    O     O_R   0.612340 0.867700 0.025880 -0.634437
O10   O     O_R   0.387660 0.132300 0.974120 -0.632305
O11   O     O_R   0.387660 0.974120 0.132300 -0.634437
O12   O     O_R   0.017060 0.861050 0.489840 -0.644534
O13   O     O_R   0.612340 0.025880 0.867700 -0.632305
O14   O     O_R   0.132300 0.387660 0.974120 -0.634437
O15   O     O_R   0.867700 0.612340 0.025880 -0.632305
O16   O     O_R   0.974120 0.132300 0.387660 -0.634437
O17   O     O_R   0.025880 0.867700 0.612340 -0.632305
O18   O     O_2   0.561566 0.838430 0.838041 -0.568503
O19   O     O_2   0.591119 0.804170 0.238774 -0.570103
O20   O     O_2   0.838430 0.838041 0.561566 -0.568504
O21   O     O_2   0.804170 0.238774 0.591119 -0.570103
O22   O     O_2   0.838040 0.561566 0.838430 -0.568504
O23   O     O_R   0.138950 0.510160 0.982940 -0.638011
O24   O     O_2   0.238775 0.591120 0.804170 -0.570102
O25   O     O_2   0.161959 0.161570 0.438435 -0.568503
O26   O     O_2   0.761226 0.195830 0.408881 -0.570103
O27   O     O_2   0.438434 0.161959 0.161570 -0.568504
O28   O     O_2   0.408881 0.761226 0.195830 -0.570103
O29   O     O_2   0.161570 0.438435 0.161959 -0.568503
O30   O     O_2   0.195830 0.408881 0.761226 -0.570103
O31   O     O_R   0.861050 0.489840 0.017060 -0.644533
O32   O     O_R   0.510160 0.982940 0.138950 -0.638011
O33   O     O_R   0.489840 0.017060 0.861050 -0.644534
O34   O     O_R   0.489840 0.861050 0.017060 -0.638011
O35   O     O_R   0.510160 0.138950 0.982940 -0.644534
O36   O     O_R   0.017060 0.489840 0.861050 -0.638011
Zn1   Zn    Zn3+2 0.004880 0.004880 0.583590 0.949312
Zn2   Zn    Zn3+2 0.995120 0.995120 0.416410 0.949312
Zn3   Zn    Zn3+2 0.004880 0.583590 0.004880 0.949313
Zn4   Zn    Zn3+2 0.995120 0.416410 0.995120 0.949313
Zn5   Zn    Zn3+2 0.583590 0.004880 0.004880 0.949313
Zn6   Zn    Zn3+2 0.416410 0.995120 0.995120 0.949312

loop_
_geom_bond_atom_site_label_1
_geom_bond_atom_site_label_2
_ccdc_geom_bond_type
C36   C89   A    
C39   C51   A    
C98   O22   D    
C1    C21   A    
O14   Zn4   S    
O6    Zn2   S    
C64   C77   A    
C86   H10   S    
C70   H28   S    
C40   C93   A    
C35   C47   A    
C72   C85   A    
C23   C56   A    
O10   Zn6   S    
C17   C79   S    
C40   C46   A    
C66   C79   A    
C12   C68   S    
C80   H5    S    
C9    O17   A    
O17   Zn1   S    
C50   C59   A    
C45   C50   A    
C92   H30   S    
C9    C69   S    
C27   C60   A    
C13   C67   S    
C54   C87   A    
C10   C73   S    
C43   C52   A    
C81   H29   S    
C46   C92   A    
C21   C94   S    
C16   O35   A    
C19   O3    A    
C96   O20   D    
O12   Zn2   S    
C60   C73   A    
C42   C70   A    
C23   C96   S    
C4    H22   S    
C22   C95   S    
C14   C77   S    
C20   O6    A    
C55   C88   A    
C23   C26   A    
C35   C42   A    
O1    Zn1   S    
C36   C53   A    
C100  O25   D    
C9    O12   A    
C15   C22   A    
C95   H13   S    
C24   C57   A    
C8    C71   S    
C5    C33   S    
C5    H24   S    
O16   Zn2   S    
C83   H7    S    
O7    Zn3   S    
C100  H18   S    
C7    C43   A    
C14   O34   A    
C58   C91   A    
C1    H1    S    
O5    Zn1   S    
C19   O5    A    
C39   C45   A    
C28   C61   A    
C28   C100  S    
C14   O9    A    
C77   C85   A    
O8    Zn4   S    
C6    C44   A    
C30   C63   A    
O9    Zn5   S    
C7    C33   A    
C8    O16   A    
C34   C41   A    
C74   C82   A    
C44   C53   A    
C39   C91   A    
C94   H11   S    
C3    H21   S    
C33   C66   A    
C98   H16   S    
C66   C89   A    
C38   C44   A    
C48   C51   A    
C2    C45   A    
C65   C90   A    
C6    C32   A    
O34   Zn6   S    
C57   C90   A    
C20   C74   S    
C24   C97   S    
O15   Zn3   S    
C30   C92   A    
C37   C52   A    
C55   C68   A    
C11   C72   S    
C54   C67   A    
O33   Zn6   S    
C46   C51   A    
C11   O15   A    
C101  H19   S    
C2    C31   A    
C26   H23   S    
C102  O27   D    
C16   O10   A    
C29   C81   A    
C69   C83   A    
C61   C88   A    
O23   Zn3   S    
C12   O32   A    
C35   C88   A    
C13   O33   A    
C2    H2    S    
C18   C78   S    
C41   C81   A    
C99   O24   D    
C30   C102  S    
C11   O31   A    
C24   C37   A    
C41   C47   A    
C7    H4    S    
C29   C101  S    
O32   Zn5   S    
C17   O7    A    
C57   C71   A    
C18   O8    A    
O31   Zn4   S    
C20   O4    A    
C25   C48   A    
C4    C32   S    
C10   O14   A    
C56   C89   A    
O13   Zn5   S    
C101  O26   D    
C97   O21   D    
O2    Zn3   S    
C13   O13   A    
C62   C75   A    
C95   O19   D    
C25   C58   A    
C26   C53   A    
C76   C86   A    
C71   C84   A    
C75   C80   A    
C82   H6    S    
C63   C93   A    
C29   C62   A    
C59   H27   S    
C34   C49   A    
C65   C78   A    
C8    O1    A    
C16   C76   S    
C31   C64   A    
C28   C70   A    
C67   C80   A    
C85   H9    S    
C17   O36   A    
C10   O23   A    
C22   C55   A    
C61   C74   A    
C94   O18   D    
C62   C87   A    
C38   C90   A    
C36   C43   A    
C64   C91   A    
C12   O11   A    
O35   Zn5   S    
C21   C54   A    
C68   C82   A    
C5    O30   D    
C19   C75   S    
C27   C59   A    
C60   C93   A    
C3    C31   S    
C79   C83   A    
C58   C72   A    
C3    O28   D    
C48   H26   S    
C40   C50   A    
C6    H3    S    
C18   O2    A    
C34   C87   A    
C97   H15   S    
C27   C99   S    
C84   H8    S    
C73   C86   A    
C42   C49   A    
C99   H17   S    
O3    Zn2   S    
C78   C84   A    
C25   C98   S    
O36   Zn4   S    
C38   C52   A    
O4    Zn1   S    
C56   C69   A    
C63   C76   A    
C4    O29   D    
C96   H14   S    
C15   C47   A    
O11   Zn6   S    
C102  H20   S    
C1    C49   A    
C15   H12   S    
C32   C65   A    
C37   H25   S    
