data_str_m12_o9_o22_f0_bcu.sym.49
_audit_creation_date              2012-12-11T17:45:29-0500
_audit_creation_method            fapswitch 2.2
_symmetry_space_group_name_H-M    P1
_symmetry_Int_Tables_number       1
_space_group_crystal_system       triclinic
_cell_length_a                    15.175986
_cell_length_b                    15.093877
_cell_length_c                    15.194442
_cell_angle_alpha                 110.33107
_cell_angle_beta                  109.009997
_cell_angle_gamma                 109.993741
_cell_volume                      2648.11559724

loop_
_atom_site_label
_atom_site_type_symbol
_atom_type_description
_atom_site_fract_x
_atom_site_fract_y
_atom_site_fract_z
_atom_type_partial_charge
C1    C     C_R   0.905039 0.194007 0.990586 -0.157055
C2    C     C_R   0.685977 0.247902 0.776119 -0.134043
C3    C     C_R   0.794306 0.592285 0.097688 -0.144944
C4    C     C_R   0.295711 0.806988 0.207944 -0.139091
C5    C     C_R   0.999739 0.411430 0.698876 -0.164133
C6    C     C_R   0.700875 0.502175 0.067400 0.050340
C7    C     C_R   0.050772 0.504802 0.694947 0.074533
C8    C     C_R   0.676384 0.223998 0.674756 0.048604
C9    C     C_R   0.961212 0.788289 0.965312 0.058096
C10   C     C_R   0.709781 0.238566 0.138460 -0.159770
C11   C     C_R   0.791464 0.324008 0.244538 -0.183543
C12   C     C_R   0.298309 0.870930 0.301839 0.066237
C13   C     C_R   0.872234 0.310353 0.305599 0.108227
C14   C     C_R   0.864716 0.207999 0.262872 -0.196740
C15   C     C_R   0.780027 0.121741 0.159056 -0.221769
C16   C     C_R   0.224001 0.409546 0.967049 -0.145658
C17   C     C_R   0.703947 0.136888 0.093908 0.241870
C18   C     C_R   0.977697 0.411681 0.502483 -0.263865
C19   C     C_R   0.060895 0.504165 0.603426 0.074022
C20   C     C_R   0.141853 0.593118 0.610622 0.027670
C21   C     C_R   0.140540 0.583166 0.516171 -0.245209
C22   C     C_R   0.055019 0.491971 0.415480 0.074083
C23   C     C_R   0.326451 0.504152 0.037305 0.024582
C24   C     C_R   0.971284 0.405382 0.408323 0.035719
C25   C     C_R   0.187620 0.783599 0.725966 -0.197786
C26   C     C_R   0.256365 0.887680 0.820363 -0.150311
C27   C     C_R   0.355270 0.912158 0.898104 -0.082559
C28   C     C_R   0.059204 0.591907 0.313950 -0.124193
C29   C     C_R   0.385892 0.833064 0.880967 -0.065790
C30   C     C_R   0.317288 0.728508 0.786831 -0.137654
C31   C     C_R   0.217241 0.703072 0.709406 0.100164
C32   C     C_R   0.086671 0.923411 0.405611 -0.139023
C33   C     C_R   0.182296 0.991750 0.413361 -0.172530
C34   C     C_R   0.044556 0.498937 0.320804 0.037517
C35   C     C_R   0.283000 0.017175 0.490612 0.113557
C36   C     C_R   0.287802 0.986431 0.568704 -0.175142
C37   C     C_R   0.192278 0.920312 0.561601 -0.128075
C38   C     C_R   0.091760 0.885059 0.477469 -0.130371
C39   C     C_R   0.477415 0.143231 0.567563 -0.242118
C40   C     C_R   0.313929 0.594607 0.063233 -0.075694
C41   C     C_R   0.574882 0.161091 0.568972 0.068765
C42   C     C_R   0.570644 0.104134 0.469756 0.014785
C43   C     C_R   0.471644 0.033026 0.375111 -0.225361
C44   C     C_R   0.378409 0.989913 0.381838 0.052582
C45   C     C_R   0.700869 0.409853 0.005290 -0.145930
C46   C     C_R   0.378430 0.053234 0.476654 0.032593
C47   C     C_R   0.720252 0.128996 0.426789 -0.161734
C48   C     C_R   0.814627 0.124623 0.444966 -0.137073
C49   C     C_R   0.844477 0.073487 0.500186 -0.105703
C50   C     C_R   0.775670 0.018366 0.529313 -0.064733
C51   C     C_R   0.681486 0.021646 0.511187 -0.126584
C52   C     C_R   0.982272 0.409342 0.217377 -0.107050
C53   C     C_R   0.657189 0.082846 0.466159 0.103684
C54   C     C_3   0.518019 0.451146 0.948026 -0.412161
C55   C     C_3   0.410674 0.437349 0.938273 -0.356411
C56   C     C_R   0.084862 0.594480 0.790404 -0.129217
C57   C     C_3   0.558872 0.447674 0.126246 0.104750
C58   C     C_3   0.630738 0.626660 0.129355 -0.100550
C59   C     C_3   0.604568 0.504663 0.069047 0.233281
C60   C     C_3   0.428594 0.507390 0.051971 0.273420
C61   C     C_3   0.458682 0.456884 0.122043 -0.488539
C62   C     C_3   0.524977 0.627541 0.107600 -0.019546
C63   C     C_R   0.988126 0.971999 0.616296 -0.139174
C64   C     C_R   0.210919 0.801346 0.302158 -0.142457
C65   C     C_R   0.938816 0.936962 0.670276 -0.159892
C66   C     C_R   0.997008 0.989031 0.783431 0.118000
C67   C     C_R   0.780053 0.259027 0.689427 -0.115987
C68   C     C_R   0.108636 0.066719 0.840938 -0.186667
C69   C     C_R   0.157254 0.101898 0.786348 -0.153290
C70   C     C_R   0.096247 0.057209 0.674805 -0.082278
C71   C     C_R   0.941141 0.867616 0.849068 -0.231161
C72   C     C_R   0.920170 0.849848 0.926179 0.063719
C73   C     C_R   0.872229 0.902504 0.972418 0.021268
C74   C     C_R   0.846540 0.969034 0.939079 -0.219059
C75   C     C_R   0.900315 0.013739 0.892576 0.056717
C76   C     C_R   0.992428 0.195046 0.898570 -0.148644
C77   C     C_R   0.942510 0.956432 0.840135 0.018333
C78   C     C_R   0.937432 0.751428 0.031006 -0.129061
C79   C     C_R   0.793982 0.873291 0.088133 -0.245736
C80   C     C_R   0.805167 0.905356 0.191048 -0.060141
C81   C     C_R   0.905181 0.989023 0.283832 -0.107448
C82   C     C_R   0.994232 0.042171 0.274933 -0.178901
C83   C     C_R   0.983953 0.010061 0.172768 -0.118858
C84   C     C_R   0.883782 0.925338 0.078950 0.110548
C85   C     C_R   0.931357 0.129219 0.924943 0.069074
C86   C     C_3   0.598261 0.075951 0.900681 -0.979475
C87   C     C_3   0.445098 0.239434 0.995337 -0.977220
C88   C     C_R   0.034813 0.760044 0.946552 -0.132686
H1    H     H_    0.848322 0.167447 0.016559 0.113853
H2    H     H_    0.796457 0.402979 0.275884 0.134563
H3    H     H_    0.342055 0.835110 0.172581 0.105463
H4    H     H_    0.927788 0.197147 0.307781 0.139055
H5    H     H_    0.776605 0.044533 0.126800 0.152207
H6    H     H_    0.910795 0.347656 0.495884 0.131278
H7    H     H_    0.201857 0.651124 0.520741 0.134060
H8    H     H_    0.110074 0.764562 0.666938 0.127658
H9    H     H_    0.232714 0.948985 0.833484 0.138436
H10   H     H_    0.408327 0.992312 0.971715 0.119249
H11   H     H_    0.462916 0.853224 0.941152 0.150890
H12   H     H_    0.136488 0.680217 0.822687 0.124852
H13   H     H_    0.341417 0.667508 0.774658 0.146512
H14   H     H_    0.017885 0.827481 0.467671 0.151392
H15   H     H_    0.203662 0.324729 0.929620 0.106165
H16   H     H_    0.008559 0.892747 0.339067 0.156333
H17   H     H_    0.177256 0.012962 0.351479 0.123644
H18   H     H_    0.364530 0.005397 0.629153 0.122349
H19   H     H_    0.196184 0.892726 0.618527 0.137173
H20   H     H_    0.478639 0.189123 0.641284 0.122822
H21   H     H_    0.473212 0.992279 0.302028 0.131220
H22   H     H_    0.700899 0.174467 0.389733 0.124926
H23   H     H_    0.804869 0.263398 0.632039 0.124701
H24   H     H_    0.867657 0.164976 0.421212 0.117870
H25   H     H_    0.921585 0.078081 0.521477 0.100271
H26   H     H_    0.796263 0.976511 0.569591 0.119569
H27   H     H_    0.100893 0.675741 0.379959 0.106834
H28   H     H_    0.631463 0.983192 0.539175 0.115016
H29   H     H_    0.505229 0.371220 0.892887 0.156521
H30   H     H_    0.546707 0.505199 0.916787 0.187960
H31   H     H_    0.374464 0.460649 0.880148 0.192605
H32   H     H_    0.352816 0.349221 0.902721 0.155900
H33   H     H_    0.387726 0.377088 0.091352 0.179110
H34   H     H_    0.879658 0.752265 0.056577 0.123003
H35   H     H_    0.669585 0.672169 0.096346 0.158584
H36   H     H_    0.374899 0.680853 0.116850 0.127785
H37   H     H_    0.533878 0.680497 0.185919 0.153847
H38   H     H_    0.622770 0.497977 0.213361 0.116350
H39   H     H_    0.478937 0.511377 0.205964 0.164103
H40   H     H_    0.133505 0.087059 0.633476 0.128065
H41   H     H_    0.941815 0.934106 0.529176 0.150578
H42   H     H_    0.854731 0.871167 0.624399 0.133891
H43   H     H_    0.156001 0.103658 0.928062 0.116663
H44   H     H_    0.241407 0.164821 0.830132 0.116953
H45   H     H_    0.072630 0.778362 0.901251 0.098863
H46   H     H_    0.971285 0.823197 0.806859 0.129962
H47   H     H_    0.806206 0.004367 0.972821 0.122177
H48   H     H_    0.960856 0.325552 0.192475 0.125003
H49   H     H_    0.716037 0.809971 0.015930 0.165057
H50   H     H_    0.736245 0.867546 0.199405 0.182895
H51   H     H_    0.914599 0.011707 0.362865 0.124305
H52   H     H_    0.071059 0.108287 0.347286 0.121960
H53   H     H_    0.053156 0.052624 0.166366 0.112012
H54   H     H_    0.185503 0.817291 0.360250 0.141048
H55   H     H_    0.007573 0.169345 0.832536 0.127838
H56   H     H_    0.622007 0.233162 0.795648 0.100439
H57   H     H_    0.642466 0.325020 0.972174 0.116797
H58   H     H_    0.627413 0.978871 0.961581 0.166858
H59   H     H_    0.539625 0.998951 0.820227 0.262315
H60   H     H_    0.672971 0.120342 0.899911 0.256049
H61   H     H_    0.559817 0.126210 0.911655 0.251375
H62   H     H_    0.560558 0.324111 0.157038 0.168046
H63   H     H_    0.455072 0.167493 0.982576 0.242425
H64   H     H_    0.432380 0.244650 0.922307 0.256339
H65   H     H_    0.372574 0.221472 0.004392 0.246522
H66   H     H_    0.827925 0.677916 0.154540 0.135647
H67   H     H_    0.976686 0.328443 0.644325 0.109401
H68   H     H_    0.653521 0.252766 0.090084 0.144901
I1    I     I_    0.745873 0.723428 0.303868 -0.616925
I2    I     I_    0.501346 0.704313 0.010916 -0.626700
N1    N     N_R   0.947080 0.293830 0.002870 -0.042630
N2    N     N_R   0.153670 0.443180 0.946090 -0.037655
N3    N     N_R   0.002360 0.556820 0.208890 -0.038955
N4    N     N_R   0.210070 0.556820 0.002870 -0.037666
N5    N     N_R   0.945960 0.443180 0.152110 -0.040707
N6    N     N_R   0.151710 0.706170 0.208890 -0.043794
N7    N     N_R   0.004320 0.293830 0.946090 -0.040781
N8    N     N_R   0.789930 0.443180 0.997130 -0.038047
N9    N     N_2   0.622525 0.049089 0.985093 -0.118201
N10   N     N_2   0.541546 0.337038 0.092623 -0.111322
N11   N     N_R   0.054040 0.556820 0.847890 -0.040670
N12   N     N_R   0.848290 0.293830 0.791110 -0.044004
N13   N     N_R   0.995680 0.706170 0.053910 -0.043485
N14   N     N_R   0.052920 0.706170 0.997130 -0.041694
N15   N     N_R   0.791050 0.293830 0.847890 -0.041693
N16   N     N_R   0.846330 0.556820 0.053910 -0.040978
N17   N     N_R   0.997640 0.443180 0.791110 -0.041248
N18   N     N_R   0.208950 0.706170 0.152110 -0.044654
Ni1   Ni    Ni4+2 0.869690 0.369690 0.000000 0.212452
Ni2   Ni    Ni4+2 0.130310 0.630310 0.000000 0.225159
Ni3   Ni    Ni4+2 0.000970 0.369690 0.869780 0.214638
Ni4   Ni    Ni4+2 0.999030 0.630310 0.130220 0.220096

loop_
_geom_bond_atom_site_label_1
_geom_bond_atom_site_label_2
_ccdc_geom_bond_type
C25   C31   A    
C66   C68   A    
N13   N14   A    
C63   C65   A    
C27   H10   S    
C58   C62   S    
C88   N14   A    
C6    C45   A    
C56   N11   A    
C16   N2    A    
C2    H56   S    
C41   C42   A    
C49   H25   S    
C35   C36   A    
C9    C72   S    
C64   N6    A    
C3    C6    A    
C86   H59   S    
C71   H46   S    
C81   C82   A    
C39   C41   A    
C57   N10   S    
C55   H31   S    
N7    Ni3   S    
C58   H35   S    
C29   C30   A    
C45   H57   S    
C60   C62   S    
C36   C37   A    
C88   H45   S    
C37   H19   S    
C42   C53   S    
C30   C31   A    
C12   C64   A    
C57   C59   S    
H58   N9    S    
C27   C29   A    
C10   C17   A    
C70   H40   S    
C23   C40   A    
C9    C88   A    
C61   H33   S    
C18   C19   A    
C73   C74   A    
C55   H32   S    
C82   H52   S    
C3    N16   A    
C13   C14   A    
C75   C85   S    
C83   C84   A    
C68   C69   A    
N5    Ni1   S    
C32   H16   S    
C32   C38   A    
C4    C12   A    
C18   H6    S    
C45   N8    A    
C73   C84   S    
N6    Ni4   S    
C47   C53   A    
C4    H3    S    
N18   Ni2   S    
C28   C34   A    
C87   H63   S    
C55   C60   S    
C5    N17   A    
C23   C60   S    
C7    C56   A    
N1    Ni1   S    
C40   H36   S    
N3    N5    A    
C44   C46   A    
C28   N3    A    
C65   H42   S    
C54   C59   S    
C67   N12   A    
C1    C85   A    
C39   H20   S    
C22   C34   S    
N8    N16   A    
C74   C75   A    
C29   H11   S    
C36   H18   S    
C1    N1    A    
C33   H17   S    
C8    C41   S    
C17   N9    S    
C86   H61   S    
C10   H68   S    
C57   H38   S    
C5    C7    A    
C72   C73   A    
N17   Ni3   S    
C21   H7    S    
C25   C26   A    
C5    H67   S    
C82   C83   A    
C3    H66   S    
N1    N7    A    
C13   C24   S    
C60   C61   S    
C50   H26   S    
N2    N4    A    
C68   H43   S    
C43   C44   A    
N2    Ni3   S    
C40   N4    A    
C37   C38   A    
C28   H27   S    
C16   H15   S    
C47   C48   A    
C63   C70   A    
N15   Ni1   S    
H62   N10   S    
C74   H47   S    
C87   H65   S    
C50   C51   A    
N11   N17   A    
C76   N7    A    
C61   H39   S    
N8    Ni1   S    
N3    Ni4   S    
C75   C77   A    
C14   H4    S    
C8    C67   A    
C39   C46   A    
C67   H23   S    
C48   C49   A    
C79   H49   S    
C49   C50   A    
C16   C23   A    
C7    C19   S    
C87   H64   S    
C54   H30   S    
C87   N10   S    
C26   C27   A    
C52   H48   S    
C18   C24   A    
N13   Ni4   S    
C42   C43   A    
C56   H12   S    
N16   Ni4   S    
N11   Ni2   S    
C71   C77   A    
C83   H53   S    
N14   Ni2   S    
C15   C17   A    
C66   C77   S    
C54   C55   S    
C1    H1    S    
C48   H24   S    
C6    C59   S    
C2    C8    A    
C86   N9    S    
C80   C81   A    
C58   I1    S    
C86   H60   S    
C15   H5    S    
C62   H37   S    
C57   C61   S    
C47   H22   S    
C34   C52   A    
C51   H28   S    
C81   H51   S    
N12   Ni3   S    
C32   C33   A    
C19   C20   A    
C58   C59   S    
C71   C72   A    
C2    N15   A    
C11   C13   A    
C11   H2    S    
C79   C84   A    
C64   H54   S    
C69   H44   S    
C80   H50   S    
C30   H13   S    
C78   N13   A    
C33   C35   A    
C62   I2    S    
N6    N18   A    
C22   C24   A    
C9    C78   A    
C63   H41   S    
C69   C70   A    
C78   H34   S    
N4    Ni2   S    
C10   C11   A    
C26   H9    S    
C79   C80   A    
C76   H55   S    
C20   C21   A    
C25   H8    S    
C38   H14   S    
C65   C66   A    
C4    N18   A    
C54   H29   S    
C14   C15   A    
C12   C44   S    
C43   H21   S    
C51   C53   A    
C52   N5    A    
C21   C22   A    
C35   C46   S    
C76   C85   A    
N12   N15   A    
C20   C31   S    
