data_str_m3_o10_o15_f0_pcu.sym.111
_audit_creation_date              2013-03-05T15:40:34-0500
_audit_creation_method            fapswitch 2.2
_symmetry_space_group_name_H-M    P1
_symmetry_Int_Tables_number       1
_space_group_crystal_system       triclinic
_cell_length_a                    7.903611
_cell_length_b                    8.550423
_cell_length_c                    10.565031
_cell_angle_alpha                 91.394858
_cell_angle_beta                  84.277089
_cell_angle_gamma                 93.601024
_cell_volume                      708.897748596

loop_
_atom_site_label
_atom_site_type_symbol
_atom_site_description
_atom_site_fract_x
_atom_site_fract_y
_atom_site_fract_z
_atom_type_partial_charge
O1    O     O_R   0.389250 0.738570 0.508280 -0.602768
O2    O     O_R   0.610750 0.261430 0.491720 -0.605774
O3    O     O_R   0.678390 0.711630 0.486650 -0.630174
O4    O     O_R   0.321610 0.288370 0.513350 -0.630769
C1    C     C_R   0.545297 0.794171 0.496692 0.941673
C2    C     C_R   0.454695 0.205839 0.503656 0.995994
O5    O     O_R   0.355430 0.513480 0.694040 -0.619287
O6    O     O_R   0.644570 0.486520 0.305960 -0.624475
O7    O     O_R   0.644570 0.486540 0.672410 -0.618836
O8    O     O_R   0.355430 0.513460 0.327590 -0.627267
C3    C     C_R   0.504211 0.522787 0.739393 0.864703
C4    C     C_R   0.495975 0.478701 0.260269 0.916392
Zn1   Zn    Zn3+2 0.306940 0.517990 0.514440 0.956162
Zn2   Zn    Zn3+2 0.693060 0.482010 0.485560 0.942510
H1    H     H_    0.039421 0.445168 0.834436 0.188183
H2    H     H_    0.960232 0.560879 0.164338 0.183474
C5    C     C_R   0.224085 0.652131 0.921150 -0.012555
C6    C     C_R   0.777137 0.352348 0.077344 -0.007314
C7    C     C_R   0.058539 0.613090 0.978850 -0.100144
C8    C     C_R   0.942283 0.392761 0.020044 -0.226683
C9    C     C_R   0.035717 0.510903 0.082714 -0.161824
C10   C     C_R   0.964542 0.495153 0.916353 -0.093898
C11   C     C_R   0.178959 0.461174 0.132586 -0.175340
C12   C     C_R   0.820975 0.544892 0.866980 -0.170884
C13   C     C_R   0.342063 0.491456 0.070635 0.088671
C14   C     C_R   0.658154 0.513575 0.928927 0.069065
C15   C     C_R   0.359779 0.566692 0.953979 -0.010480
C16   C     C_R   0.640560 0.437528 0.045204 0.072764
C17   C     C_R   0.488283 0.450374 0.123685 -0.160747
C18   C     C_R   0.512013 0.553667 0.875661 -0.249044
H3    H     H_    0.992221 0.720747 0.997248 0.178265
H4    H     H_    0.009354 0.285422 0.001658 0.164171
H5    H     H_    0.158392 0.380698 0.210903 0.147800
H6    H     H_    0.840618 0.624828 0.788264 0.175549
C19   C     C_2   0.568846 0.957998 0.494917 -0.342609
C20   C     C_2   0.431130 0.042020 0.505991 -0.326428
H7    H     H_    0.699008 0.008872 0.484174 0.182219
H8    H     H_    0.300967 0.991149 0.516750 0.191078
N1    N     N_2   0.950330 0.457950 0.466250 -0.187828
N2    N     N_2   0.049670 0.542050 0.533750 -0.174367
H9    H     H_    0.010386 0.373020 0.411377 0.172965
H10   H     H_    0.989617 0.627010 0.588570 0.200639
C21   C     C_2   0.254841 0.786837 0.833416 0.420380
H11   H     H_    0.384029 0.828689 0.801007 0.054448
O9    O     O_2   0.136336 0.852144 0.796332 -0.610634
C22   C     C_2   0.752221 0.214701 0.162157 0.414870
H12   H     H_    0.861651 0.166901 0.198305 0.044390
O10   O     O_2   0.611127 0.150924 0.189413 -0.596237

loop_
_geom_bond_atom_site_label_1
_geom_bond_atom_site_label_2
_geom_bond_distance
_ccdc_geom_bond_type
O7    Zn2   1.972970 S    
C5    C21   1.488877 S    
H2    C9    1.092554 S    
C4    C17   1.463991 S    
C13   C15   1.394734 A    
C21   O9    1.221514 D    
C14   C16   1.394542 A    
C19   C20   1.335393 D    
O6    C4    1.310889 A    
C21   H11   1.085440 S    
C7    H3    1.091534 S    
C20   H8    1.087813 S    
N1    H9    1.027948 S    
C15   C18   1.399473 A    
O5    C3    1.310516 A    
O7    C3    1.305159 A    
O2    C2    1.288942 A    
O3    Zn2   1.973712 S    
O8    C4    1.304499 A    
O1    C1    1.288872 A    
C1    C19   1.401797 S    
N2    H10   1.027836 S    
C16   C17   1.400440 A    
C19   H7    1.087817 S    
C2    C20   1.401897 S    
C14   C18   1.398967 A    
C10   C12   1.389227 A    
C11   C13   1.398321 A    
C9    C11   1.389417 A    
C13   C17   1.401016 A    
O2    Zn2   1.956538 S    
C22   O10   1.221098 D    
O1    Zn1   1.956538 S    
C8    C10   1.409427 A    
C5    C15   1.410371 A    
C6    C22   1.487927 S    
O5    Zn1   1.974651 S    
C7    C10   1.405735 A    
C6    C16   1.412399 A    
C8    C9    1.405494 A    
C11   H5    1.082305 S    
C6    C8    1.409073 A    
O4    C2    1.297342 A    
C8    H4    1.092240 S    
N1    N2    1.287590 D    
C22   H12   1.085730 S    
Zn1   N2    2.046040 S    
O6    Zn2   1.974651 S    
C5    C7    1.411006 A    
Zn2   N1    2.046040 S    
C7    C9    1.409785 A    
H1    C10   1.092498 S    
C12   H6    1.082349 S    
O4    Zn1   1.973712 S    
C3    C18   1.464008 S    
C12   C14   1.397620 A    
O3    C1    1.297394 A    
O8    Zn1   1.972970 S    
