data_str_m3_o10_o29_f0_pcu.sym.48
_audit_creation_date              2012-12-10T16:59:20-0500
_audit_creation_method            fapswitch 2.2
_symmetry_space_group_name_H-M    P1
_symmetry_Int_Tables_number       1
_space_group_crystal_system       triclinic
_cell_length_a                    7.744236
_cell_length_b                    8.551845
_cell_length_c                    27.732403
_cell_angle_alpha                 91.19258
_cell_angle_beta                  85.518449
_cell_angle_gamma                 93.80104
_cell_volume                      1826.77900197

loop_
_atom_site_label
_atom_site_type_symbol
_atom_type_description
_atom_site_fract_x
_atom_site_fract_y
_atom_site_fract_z
_atom_type_partial_charge
C1    C     C_R   0.545972 0.794875 0.498735 0.960967
C2    C     C_R   0.568463 0.620782 0.127494 -0.050516
C3    C     C_R   0.506292 0.508971 0.646598 -0.147194
C4    C     C_R   0.493708 0.491029 0.353402 -0.147194
C5    C     C_R   0.565945 0.634358 0.025988 0.042651
C6    C     C_R   0.434058 0.365641 0.974012 0.042650
C7    C     C_R   0.454805 0.356885 0.024288 0.041713
C8    C     C_R   0.545199 0.643114 0.975711 0.041714
C9    C     C_R   0.510159 0.493041 0.050360 -0.007955
C10   C     C_R   0.489843 0.506958 0.949640 -0.007955
C11   C     C_R   0.649212 0.758375 0.052578 0.393178
C12   C     C_R   0.454027 0.205125 0.501265 0.960967
C13   C     C_R   0.350791 0.241624 0.947422 0.393178
C14   C     C_R   0.640000 0.753289 0.103063 -0.219815
C15   C     C_R   0.360003 0.246710 0.896937 -0.219814
C16   C     C_R   0.502085 0.501786 0.593922 0.969991
C17   C     C_R   0.497915 0.498214 0.406078 0.969991
C18   C     C_R   0.566228 0.786655 0.951076 -0.238784
C19   C     C_R   0.433776 0.213344 0.048924 -0.238784
C20   C     C_2   0.570257 0.958397 0.497999 -0.331436
C21   C     C_2   0.429743 0.041603 0.502001 -0.331436
C22   C     C_R   0.546994 0.651349 0.823140 0.567339
C23   C     C_R   0.486576 0.513426 0.898756 -0.139365
C24   C     C_R   0.453007 0.348650 0.176860 0.567339
C25   C     C_R   0.440563 0.383138 0.822075 0.565457
C26   C     C_R   0.559438 0.616862 0.177925 0.565457
C27   C     C_R   0.626076 0.430522 0.719888 -0.205912
C28   C     C_R   0.373924 0.569477 0.280112 -0.205912
C29   C     C_R   0.627130 0.424782 0.669374 0.361308
C30   C     C_R   0.372870 0.575217 0.330626 0.361307
C31   C     C_R   0.387861 0.599972 0.674328 0.363164
C32   C     C_R   0.612139 0.400027 0.325672 0.363164
C33   C     C_R   0.388866 0.602566 0.724692 -0.212490
C34   C     C_R   0.513427 0.486574 0.101244 -0.139364
C35   C     C_R   0.611134 0.397434 0.275308 -0.212490
C36   C     C_R   0.506597 0.517877 0.747180 0.204002
C37   C     C_R   0.493403 0.482122 0.252820 0.204002
C38   C     C_R   0.537437 0.653989 0.874015 -0.070043
C39   C     C_R   0.462565 0.346010 0.125984 -0.070043
C40   C     C_R   0.570907 0.792990 0.900669 0.465595
C41   C     C_R   0.429096 0.207010 0.099331 0.465595
C42   C     C_R   0.431538 0.379218 0.872506 -0.050516
H1    H     H_    0.014262 0.382680 0.463360 0.207684
H2    H     H_    0.428267 0.102907 0.029543 0.198263
H3    H     H_    0.702859 0.009732 0.494176 0.184835
H4    H     H_    0.297141 0.990268 0.505824 0.184835
H5    H     H_    0.201717 0.743407 0.676283 0.347788
H6    H     H_    0.798284 0.256594 0.323717 0.347788
H7    H     H_    0.630499 0.018645 0.901192 0.329910
H8    H     H_    0.369504 0.981354 0.098808 0.329911
H9    H     H_    0.184315 0.716067 0.336445 0.348195
H10   H     H_    0.815685 0.283932 0.663555 0.348195
H11   H     H_    0.800026 0.951567 0.053038 0.348588
H12   H     H_    0.985738 0.617320 0.536640 0.207684
H13   H     H_    0.199977 0.048432 0.946962 0.348588
H14   H     H_    0.297455 0.669623 0.746695 0.163735
H15   H     H_    0.702546 0.330377 0.253305 0.163735
H16   H     H_    0.283808 0.634472 0.261755 0.165451
H17   H     H_    0.716192 0.365527 0.738244 0.165451
H18   H     H_    0.695767 0.851699 0.123133 0.209645
H19   H     H_    0.304235 0.148300 0.876867 0.209645
H20   H     H_    0.571736 0.897092 0.970457 0.198263
N1    N     N_R   0.500558 0.516858 0.798664 -0.353928
N2    N     N_R   0.499443 0.483141 0.201336 -0.353928
N3    N     N_2   0.950320 0.457960 0.486880 -0.154621
N4    N     N_2   0.049680 0.542040 0.513120 -0.154621
O1    O     O_R   0.389250 0.738570 0.503220 -0.604999
O2    O     O_2   0.396216 0.219292 0.201957 -0.459414
O3    O     O_2   0.611296 0.745212 0.203534 -0.519865
O4    O     O_2   0.388705 0.254788 0.796466 -0.519865
O5    O     O_3   0.274621 0.686894 0.651573 -0.732895
O6    O     O_3   0.725379 0.313105 0.348427 -0.732895
O7    O     O_3   0.602570 0.934578 0.877334 -0.694996
O8    O     O_3   0.397433 0.065422 0.122666 -0.694997
O9    O     O_3   0.259092 0.665251 0.358109 -0.729503
O10   O     O_3   0.740908 0.334749 0.641891 -0.729503
O11   O     O_3   0.752266 0.876033 0.029093 -0.780824
O12   O     O_R   0.610750 0.261430 0.496780 -0.604999
O13   O     O_3   0.247738 0.123966 0.970907 -0.780824
O14   O     O_R   0.678390 0.711630 0.494810 -0.641969
O15   O     O_R   0.321610 0.288370 0.505190 -0.641969
O16   O     O_R   0.355440 0.513440 0.575450 -0.571102
O17   O     O_R   0.644560 0.486560 0.424550 -0.571102
O18   O     O_R   0.644590 0.486500 0.567040 -0.590148
O19   O     O_R   0.355410 0.513500 0.432960 -0.590148
O20   O     O_2   0.603785 0.780708 0.798043 -0.459414
Zn1   Zn    Zn3+2 0.306940 0.517990 0.505620 1.018313
Zn2   Zn    Zn3+2 0.693060 0.482010 0.494380 1.018313

loop_
_geom_bond_atom_site_label_1
_geom_bond_atom_site_label_2
_ccdc_geom_bond_type
C13   O13   S    
C27   C29   A    
C33   C36   A    
C39   C41   A    
C29   O10   S    
C23   C42   A    
C17   O19   A    
C35   C37   A    
H9    O9    S    
C5    C11   A    
H8    O8    S    
C11   C14   A    
O16   Zn1   S    
C22   C38   A    
C16   O18   A    
C24   C39   A    
C40   O7    S    
C25   N1    A    
C3    C29   A    
C18   C40   A    
C26   N2    A    
C11   O11   S    
C22   N1    A    
C12   O12   A    
C31   C33   A    
C36   N1    S    
C20   H3    S    
C2    C34   A    
C33   H14   S    
C31   O5    S    
O17   Zn2   S    
C41   O8    S    
C24   N2    A    
H6    O6    S    
O19   Zn1   S    
C34   C39   A    
C32   C35   A    
C32   O6    S    
N4    Zn1   S    
C18   H20   S    
C12   C21   S    
C8    C18   A    
C17   O17   A    
H11   O11   S    
C5    C9    A    
H13   O13   S    
H1    N3    S    
C16   O16   A    
C15   H19   S    
C2    C26   A    
C4    C32   A    
C3    C31   A    
H5    O5    S    
O15   Zn1   S    
C4    C17   S    
C7    C19   A    
C13   C15   A    
C9    C34   A    
C10   C23   A    
H7    O7    S    
C37   N2    S    
C19   H2    S    
N3    Zn2   S    
C21   H4    S    
O12   Zn2   S    
C7    C9    A    
C1    C20   S    
O18   Zn2   S    
C15   C42   A    
H10   O10   S    
C25   C42   A    
C6    C10   A    
C5    C8    A    
C6    C7    A    
H12   N4    S    
C28   H16   S    
C27   C36   A    
C23   C38   A    
C14   H18   S    
O1    Zn1   S    
C35   H15   S    
C28   C30   A    
O14   Zn2   S    
C27   H17   S    
C6    C13   A    
C38   C40   A    
C30   O9    S    
C28   C37   A    
C1    O1    A    
C12   O15   A    
C22   O20   S    
C2    C14   A    
C24   O2    S    
C20   C21   D    
C8    C10   A    
N3    N4    D    
C26   O3    S    
C1    O14   A    
C25   O4    S    
C4    C30   A    
C3    C16   S    
C19   C41   A    
