data_str_m3_o41_o41_f0_fof.sym.44
_audit_creation_date              2012-12-10T16:39:35-0500
_audit_creation_method            fapswitch 2.2
_symmetry_space_group_name_H-M    P1
_symmetry_Int_Tables_number       1
_space_group_crystal_system       triclinic
_cell_length_a                    16.861732
_cell_length_b                    16.841978
_cell_length_c                    16.912961
_cell_angle_alpha                 65.885016
_cell_angle_beta                  65.768637
_cell_angle_gamma                 65.841096
_cell_volume                      3825.51618236

loop_
_atom_site_label
_atom_site_type_symbol
_atom_type_description
_atom_site_fract_x
_atom_site_fract_y
_atom_site_fract_z
_atom_type_partial_charge
C1    C     C_R   0.329818 0.939547 0.460511 0.045948
C2    C     C_R   0.309577 0.432759 0.009625 0.036776
C3    C     C_R   0.543435 0.415078 0.989641 -0.001595
C4    C     C_R   0.037338 0.449685 0.574154 -0.002540
C5    C     C_R   0.962354 0.549377 0.426603 -0.001754
C6    C     C_R   0.995188 0.686899 0.567503 0.036908
C7    C     C_R   0.006128 0.312423 0.431952 0.034790
C8    C     C_R   0.459528 0.971079 0.461074 0.009429
C9    C     C_R   0.549330 0.000564 0.550833 0.008862
C10   C     C_R   0.991567 0.453683 0.451795 0.008973
C11   C     C_R   0.008654 0.545432 0.548576 0.009206
C12   C     C_R   0.448670 0.447546 0.006278 0.008997
C13   C     C_R   0.537412 0.536627 0.038244 0.008640
C14   C     C_R   0.982362 0.175222 0.429963 0.897737
C15   C     C_R   0.672462 0.046401 0.546538 0.045912
C16   C     C_R   0.018258 0.824507 0.569831 0.896900
C17   C     C_R   0.175109 0.430058 0.982374 0.901002
C18   C     C_R   0.821049 0.563638 0.033835 0.896450
C19   C     C_R   0.435473 0.968534 0.178651 0.898138
C20   C     C_R   0.570103 0.017239 0.825127 0.902099
C21   C     C_R   0.561891 0.820402 0.038006 0.872172
C22   C     C_R   0.437550 0.179460 0.963468 0.905921
C23   C     C_R   0.037646 0.562041 0.820651 0.905770
C24   C     C_R   0.962443 0.437880 0.179375 0.868206
C25   C     C_R   0.820569 0.036759 0.562545 0.887427
C26   C     C_R   0.949555 0.455801 0.327572 0.047329
C27   C     C_R   0.179542 0.962464 0.437884 0.886672
C28   C     C_R   0.414436 0.957832 0.414747 0.066652
C29   C     C_R   0.595335 0.014128 0.595630 0.071583
C30   C     C_R   0.981772 0.407554 0.404264 0.071754
C31   C     C_R   0.018795 0.591731 0.595763 0.073482
C32   C     C_R   0.404330 0.402873 0.990092 0.072233
C33   C     C_R   0.583530 0.582651 0.050543 0.068068
C34   C     C_R   0.278848 0.942431 0.408415 -0.117761
C35   C     C_R   0.722740 0.049551 0.595374 -0.122410
C36   C     C_R   0.948891 0.405604 0.276923 -0.118785
C37   C     C_R   0.050325 0.543636 0.672826 0.049689
C38   C     C_R   0.051424 0.594019 0.723084 -0.127895
C39   C     C_R   0.405286 0.277115 0.951415 -0.126807
C40   C     C_R   0.590881 0.720846 0.059917 -0.115774
C41   C     C_R   0.607365 0.017071 0.732381 -0.109558
C42   C     C_R   0.405900 0.952760 0.275941 -0.110977
C43   C     C_R   0.723034 0.592531 0.053012 -0.114899
C44   C     C_R   0.268009 0.392856 0.982854 -0.106763
C45   C     C_R   0.019086 0.730755 0.607401 -0.110098
C46   C     C_R   0.982013 0.268719 0.392141 -0.111501
C47   C     C_R   0.499271 0.945883 0.739021 -0.180802
C48   C     C_R   0.453965 0.325836 0.957793 0.049449
C49   C     C_R   0.542197 0.976104 0.281526 -0.174847
C50   C     C_R   0.948548 0.734748 0.501249 -0.181292
C51   C     C_R   0.053384 0.264447 0.497750 -0.183051
C52   C     C_R   0.715603 0.452231 0.039807 -0.175421
C53   C     C_R   0.259947 0.500426 0.055454 -0.182023
C54   C     C_R   0.301333 0.916152 0.556107 -0.173988
C55   C     C_R   0.696965 0.073511 0.451456 -0.176942
C56   C     C_R   0.549427 0.299368 0.934625 -0.176291
C57   C     C_R   0.442356 0.698632 0.086375 -0.178444
C58   C     C_R   0.918361 0.551195 0.304983 -0.176119
C59   C     C_R   0.538178 0.669116 0.064872 0.045520
C60   C     C_R   0.080174 0.448124 0.696371 -0.177063
C61   C     C_R   0.320630 0.941305 0.319978 -0.291299
C62   C     C_R   0.683903 0.045359 0.684770 -0.286674
C63   C     C_R   0.954195 0.315609 0.315617 -0.284699
C64   C     C_R   0.046729 0.683892 0.684025 -0.282982
C65   C     C_R   0.316209 0.316881 0.953657 -0.286969
C66   C     C_R   0.679548 0.679115 0.061391 -0.288397
C67   C     C_R   0.652881 0.059637 0.405336 0.009474
C68   C     C_R   0.350750 0.919691 0.604602 0.010090
C69   C     C_R   0.075058 0.400193 0.647597 0.005797
C70   C     C_R   0.566665 0.992090 0.690196 0.036252
C71   C     C_R   0.923274 0.598900 0.354072 0.013050
C72   C     C_R   0.393751 0.648602 0.083674 0.009407
C73   C     C_R   0.594852 0.340687 0.953171 0.003808
C74   C     C_R   0.575617 0.010337 0.319731 -0.015519
C75   C     C_R   0.448849 0.936716 0.696098 0.003973
C76   C     C_R   0.302599 0.550505 0.065713 0.002351
C77   C     C_R   0.678496 0.417097 0.006077 -0.012909
C78   C     C_R   0.061377 0.308193 0.548103 0.003938
C79   C     C_R   0.940401 0.690812 0.451249 0.003110
C80   C     C_R   0.681969 0.080705 0.309797 0.144153
C81   C     C_R   0.454866 0.961952 0.322675 0.042986
C82   C     C_R   0.325438 0.891222 0.700553 0.146653
C83   C     C_R   0.106653 0.304046 0.670747 0.137863
C84   C     C_R   0.891321 0.694972 0.331325 0.145869
C85   C     C_R   0.297484 0.674878 0.110244 0.145495
C86   C     C_R   0.690315 0.308786 0.937137 0.136777
C87   C     C_R   0.647050 0.050848 0.267556 0.147282
C88   C     C_R   0.374295 0.899979 0.746155 0.131821
C89   C     C_R   0.252013 0.626067 0.100932 0.130832
C90   C     C_R   0.731465 0.343884 0.968179 0.142070
C91   C     C_R   0.099573 0.258179 0.621180 0.127284
C92   C     C_R   0.675250 0.541737 0.048403 0.041045
C93   C     C_R   0.902902 0.740740 0.377831 0.132893
C94   C     C_R   0.537338 0.002429 0.412123 0.003487
C95   C     C_R   0.474441 0.964220 0.600944 0.004498
C96   C     C_R   0.029548 0.403823 0.525187 0.002924
C97   C     C_R   0.970858 0.595201 0.475107 0.003661
C98   C     C_R   0.398014 0.523446 0.041006 0.004197
C99   C     C_R   0.586605 0.456824 0.010250 0.001598
C100  C     C_R   0.579569 0.021407 0.456042 -0.001043
C101  C     C_R   0.427239 0.952999 0.555634 0.000345
C102  C     C_R   0.443002 0.570467 0.053054 -0.000709
H1    H     H_    0.282988 0.939034 0.282453 0.206549
H2    H     H_    0.087192 0.193038 0.507308 0.194034
H3    H     H_    0.773404 0.406102 0.062815 0.208451
H4    H     H_    0.188071 0.511828 0.086779 0.195269
H5    H     H_    0.243054 0.890963 0.592611 0.196442
H6    H     H_    0.750369 0.105756 0.413729 0.195296
H7    H     H_    0.588171 0.246898 0.901325 0.193168
H8    H     H_    0.405625 0.758468 0.109037 0.195948
H9    H     H_    0.887370 0.587557 0.250855 0.191644
H10   H     H_    0.111339 0.411862 0.750336 0.189476
H11   H     H_    0.717537 0.057970 0.719258 0.206346
H12   H     H_    0.942798 0.280196 0.281944 0.206764
H13   H     H_    0.058205 0.719326 0.717618 0.206926
H14   H     H_    0.282213 0.284094 0.939159 0.205761
H15   H     H_    0.717868 0.717686 0.061056 0.206878
H16   H     H_    0.488605 0.913280 0.810410 0.194431
H17   H     H_    0.589654 0.955430 0.223097 0.215608
H18   H     H_    0.914351 0.806130 0.491603 0.192430
I1    I     I_    0.330462 0.863378 0.891365 -0.254941
I2    I     I_    0.219562 0.785577 0.169066 -0.261251
I3    I     I_    0.823329 0.772483 0.227877 -0.299245
I4    I     I_    0.165768 0.226594 0.780833 -0.263327
I5    I     I_    0.696530 0.074265 0.123592 -0.223746
I6    I     I_    0.874206 0.885626 0.329135 -0.250590
I7    I     I_    0.141152 0.112274 0.661776 -0.263900
I8    I     I_    0.875882 0.294438 0.947089 -0.207462
I9    I     I_    0.106473 0.671767 0.133829 -0.245356
I10   I     I_    0.215483 0.831248 0.777804 -0.263440
I11   I     I_    0.778259 0.157371 0.228630 -0.294689
I12   I     I_    0.773552 0.210000 0.863710 -0.259881
O1    O     O_R   0.982940 0.138950 0.510160 -0.624544
O2    O     O_R   0.982940 0.510160 0.138950 -0.630860
O3    O     O_R   0.861050 0.017060 0.489840 -0.629833
O4    O     O_R   0.138950 0.982940 0.510160 -0.631688
O5    O     O_R   0.867700 0.025880 0.612340 -0.611336
O6    O     O_R   0.132300 0.974120 0.387660 -0.609629
O7    O     O_R   0.025880 0.612340 0.867700 -0.605429
O8    O     O_R   0.974120 0.387660 0.132300 -0.619260
O9    O     O_R   0.612340 0.867700 0.025880 -0.617081
O10   O     O_R   0.387660 0.132300 0.974120 -0.604985
O11   O     O_R   0.387660 0.974120 0.132300 -0.618016
O12   O     O_R   0.017060 0.861050 0.489840 -0.622321
O13   O     O_R   0.612340 0.025880 0.867700 -0.623242
O14   O     O_R   0.132300 0.387660 0.974120 -0.622637
O15   O     O_R   0.867700 0.612340 0.025880 -0.616579
O16   O     O_R   0.974120 0.132300 0.387660 -0.621720
O17   O     O_R   0.025880 0.867700 0.612340 -0.622793
O18   O     O_R   0.138950 0.510160 0.982940 -0.626872
O19   O     O_R   0.861050 0.489840 0.017060 -0.635363
O20   O     O_R   0.510160 0.982940 0.138950 -0.638481
O21   O     O_R   0.489840 0.017060 0.861050 -0.625444
O22   O     O_R   0.489840 0.861050 0.017060 -0.634174
O23   O     O_R   0.510160 0.138950 0.982940 -0.619906
O24   O     O_R   0.017060 0.489840 0.861050 -0.615809
Zn1   Zn    Zn3+2 0.004880 0.004880 0.583590 1.037269
Zn2   Zn    Zn3+2 0.995120 0.995120 0.416410 1.043356
Zn3   Zn    Zn3+2 0.004880 0.583590 0.004880 1.044775
Zn4   Zn    Zn3+2 0.995120 0.416410 0.995120 1.035666
Zn5   Zn    Zn3+2 0.583590 0.004880 0.004880 1.034185
Zn6   Zn    Zn3+2 0.416410 0.995120 0.995120 1.042083

loop_
_geom_bond_atom_site_label_1
_geom_bond_atom_site_label_2
_ccdc_geom_bond_type
O9    Zn5   S    
C6    C45   A    
C39   C65   A    
C74   C94   A    
C17   O18   A    
O15   Zn3   S    
C50   C79   A    
C72   C85   A    
C75   C95   A    
C14   C46   S    
O23   Zn5   S    
C84   I3    S    
C21   C40   S    
C24   C36   S    
C91   I7    S    
C54   H5    S    
C69   C83   A    
C27   O4    A    
C23   O7    A    
C61   H1    S    
C79   C93   A    
C80   C87   A    
C58   C71   A    
C57   C59   A    
O14   Zn4   S    
C76   C98   A    
C20   O21   A    
C14   O16   A    
C89   I9    S    
C2    C32   A    
C49   C81   A    
O6    Zn2   S    
C93   I6    S    
C3    C12   A    
C4    C96   A    
C63   H12   S    
C53   H4    S    
C47   H16   S    
C78   C96   A    
C66   H15   S    
C1    C28   A    
C21   O22   A    
C15   C29   A    
C16   O17   A    
C56   C73   A    
C10   C96   A    
C83   I4    S    
C82   I10   S    
C36   C63   A    
C8    C101  A    
C9    C95   A    
O11   Zn6   S    
C12   C98   A    
O20   Zn5   S    
C19   C42   S    
C9    C29   A    
C76   C89   A    
O2    Zn3   S    
C11   C31   A    
C33   C59   A    
C40   C59   A    
C40   C66   A    
C23   O24   A    
C12   C32   A    
C32   C48   A    
C44   C65   A    
C42   C81   A    
C41   C62   A    
C3    C73   A    
C15   C35   A    
C4    C69   A    
C79   C97   A    
C1    C34   A    
C20   C41   S    
C38   C64   A    
C22   O23   A    
C27   C34   S    
C77   C90   A    
C27   O6    A    
O18   Zn3   S    
C58   H9    S    
C7    C46   A    
O24   Zn4   S    
C8    C94   A    
C68   C101  A    
C72   C102  A    
C62   H11   S    
C80   I11   S    
C18   O15   A    
C86   C90   A    
C33   C92   A    
C2    C44   A    
C85   C89   A    
C18   O19   A    
C51   H2    S    
C98   C102  A    
C34   C61   A    
C24   O8    A    
C31   C37   A    
C15   C55   A    
C13   C99   A    
C77   C99   A    
C25   O5    A    
C1    C54   A    
C47   C70   A    
C13   C33   A    
C37   C38   A    
C60   H10   S    
C7    C51   A    
C10   C30   A    
C57   H8    S    
C94   C100  A    
C22   O10   A    
C19   O20   A    
C85   I2    S    
O16   Zn2   S    
C6    C50   A    
C4    C11   A    
C26   C58   A    
C42   C61   A    
C67   C100  A    
C25   C35   S    
O4    Zn1   S    
C26   C36   A    
C5    C97   A    
C52   H3    S    
C26   C30   A    
C9    C100  A    
C74   C87   A    
C65   H14   S    
C50   H18   S    
C52   C92   A    
C53   C76   A    
O12   Zn2   S    
C52   C77   A    
C56   H7    S    
C87   I5    S    
C29   C70   A    
C24   O2    A    
C48   C56   A    
C19   O11   A    
C71   C84   A    
C16   O12   A    
C28   C81   A    
C49   C74   A    
O22   Zn6   S    
C67   C80   A    
C88   I1    S    
C47   C75   A    
C2    C53   A    
C64   H13   S    
C16   C45   S    
O10   Zn6   S    
C55   C67   A    
C14   O1    A    
C78   C91   A    
C23   C38   S    
C83   C91   A    
O21   Zn6   S    
C45   C64   A    
C43   C92   A    
O5    Zn1   S    
C55   H6    S    
C11   C97   A    
C68   C82   A    
O19   Zn4   S    
C17   O14   A    
C17   C44   S    
C21   O9    A    
C5    C10   A    
C5    C71   A    
C18   C43   S    
O8    Zn4   S    
C86   I12   S    
C49   H17   S    
C46   C63   A    
O13   Zn5   S    
C60   C69   A    
C43   C66   A    
C82   C88   A    
C22   C39   S    
C6    C31   A    
C35   C62   A    
O1    Zn1   S    
C84   C93   A    
C57   C72   A    
C25   O3    A    
C73   C86   A    
C51   C78   A    
C37   C60   A    
O7    Zn3   S    
C3    C99   A    
C75   C88   A    
C54   C68   A    
C8    C28   A    
C7    C30   A    
O3    Zn2   S    
C90   I8    S    
C20   O13   A    
C41   C70   A    
C13   C102  A    
O17   Zn1   S    
C95   C101  A    
C39   C48   A    
