data_str_m9_o2_o23_f0_sra.sym.58
_audit_creation_date              2012-12-11T16:31:31-0500
_audit_creation_method            fapswitch 2.2
_symmetry_space_group_name_H-M    P1
_symmetry_Int_Tables_number       1
_space_group_crystal_system       triclinic
_cell_length_a                    7.046933
_cell_length_b                    18.362669
_cell_length_c                    20.161286
_cell_angle_alpha                 68.364017
_cell_angle_beta                  89.422616
_cell_angle_gamma                 88.698722
_cell_volume                      2424.44257861

loop_
_atom_site_label
_atom_site_type_symbol
_atom_type_description
_atom_site_fract_x
_atom_site_fract_y
_atom_site_fract_z
_atom_type_partial_charge
O1    O     O_R   0.488990 0.443920 0.942160 -0.539380
O2    O     O_R   0.823840 0.406530 0.087600 -0.522661
O3    O     O_R   0.999650 0.556080 0.057840 -0.512765
C1    C     C_R   0.656708 0.379188 0.111488 0.737518
O4    O     O_R   0.818390 0.434590 0.944530 -0.516265
O5    O     O_R   0.994160 0.584350 0.913750 -0.520974
C2    C     C_R   0.652864 0.422758 0.922531 0.739050
O6    O     O_R   0.494480 0.415650 0.086250 -0.545235
O7    O     O_3   0.662600 0.549100 0.990070 -0.358074
V1    V     V_3+5 0.935320 0.490890 0.001840 1.625427
O8    O     O_R   0.324240 0.593470 0.912400 -0.546362
C3    C     C_R   0.153280 0.618120 0.886478 0.736358
O9    O     O_R   0.329690 0.565410 0.055470 -0.540938
C4    C     C_R   0.159765 0.578427 0.076433 0.749835
V2    V     V_3+5 0.435990 0.509110 0.998160 1.551447
O10   O     O_3   0.158840 0.450900 0.009930 -0.361776
C5    C     C_3   0.929923 0.715095 0.234582 0.549959
C6    C     C_3   0.273003 0.672516 0.270515 0.581583
C7    C     C_3   0.274549 0.723523 0.319266 0.142663
H1    H     H_    0.230119 0.686963 0.374556 0.119231
C8    C     C_1   0.119996 0.877654 0.376865 -0.086961
C9    C     C_3   0.134983 0.711857 0.204851 -0.227237
C10   C     C_3   0.933285 0.761837 0.287931 0.470411
C11   C     C_3   0.135808 0.796503 0.288567 -0.181204
C12   C     C_3   0.208099 0.848672 0.211038 0.550140
C13   C     C_3   0.208479 0.797274 0.162921 0.132913
C14   C     C_1   0.129618 0.841592 0.337122 0.152306
C15   C     C_1   0.139797 0.664897 0.157623 0.271692
C16   C     C_1   0.147506 0.625638 0.120474 -0.060644
H2    H     H_    0.359087 0.789755 0.149560 0.260744
C17   C     C_R   0.061526 0.783109 0.876612 0.300632
C18   C     C_R   0.077472 0.859622 0.874866 0.314421
C19   C     C_R   0.101821 0.921706 0.808943 0.347578
C20   C     C_R   0.114449 0.905927 0.746833 -0.188657
C21   C     C_R   0.114452 0.828674 0.748127 -0.067190
C22   C     C_R   0.103225 0.764784 0.815005 -0.078493
C23   C     C_R   0.124175 0.815298 0.683403 -0.079269
C24   C     C_R   0.149618 0.737907 0.685485 0.078035
C25   C     C_R   0.161324 0.673881 0.752245 -0.025541
C26   C     C_R   0.136905 0.686623 0.817367 -0.096152
C27   C     C_R   0.168578 0.723128 0.621735 -0.192602
C28   C     C_R   0.202476 0.647521 0.623350 -0.200579
C29   C     C_R   0.217763 0.584343 0.688659 0.466248
C30   C     C_R   0.195763 0.597606 0.752211 -0.158214
H3    H     H_    0.126246 0.955768 0.697195 0.170049
H4    H     H_    0.159708 0.769975 0.569912 0.105062
H5    H     H_    0.218053 0.638384 0.573464 0.132825
H6    H     H_    0.206519 0.547128 0.801502 0.127634
C31   C     C_R   0.722046 0.210767 0.124639 0.315124
C32   C     C_R   0.705534 0.134486 0.126290 0.435235
C33   C     C_R   0.653237 0.075216 0.189179 -0.230203
C34   C     C_R   0.624028 0.089414 0.251567 0.298442
C35   C     C_R   0.634215 0.167596 0.251893 -0.053485
C36   C     C_R   0.669913 0.230631 0.184968 -0.121523
C37   C     C_R   0.608994 0.184541 0.315663 -0.083016
C38   C     C_R   0.596042 0.264479 0.311108 -0.072989
C39   C     C_R   0.633392 0.325668 0.244492 -0.040835
C40   C     C_R   0.655714 0.310170 0.181027 -0.047136
C41   C     C_R   0.545236 0.287329 0.370073 0.240334
C42   C     C_R   0.568393 0.364934 0.365882 0.345475
C43   C     C_R   0.628076 0.422419 0.301779 0.321697
C44   C     C_R   0.651761 0.403149 0.241977 -0.227147
H7    H     H_    0.641580 0.016037 0.190211 0.207168
H8    H     H_    0.690735 0.450553 0.193320 0.155943
O11   O     O_R   0.770890 0.084490 0.414040 -0.533021
O12   O     O_R   0.445980 0.065450 0.555510 -0.514001
O13   O     O_R   0.270670 0.915620 0.586180 -0.548441
C45   C     C_R   0.611459 0.079532 0.576066 0.735919
O14   O     O_R   0.441480 0.093500 0.412450 -0.495947
O15   O     O_R   0.266140 0.943870 0.442100 -0.517769
C46   C     C_R   0.608485 0.118760 0.386649 0.853584
O16   O     O_R   0.775410 0.056240 0.558120 -0.538142
O17   O     O_3   0.602660 0.950990 0.510100 -0.369908
V3    V     V_3+5 0.329740 0.009100 0.498130 1.627452
O18   O     O_R   0.936120 0.934420 0.444240 -0.520145
C47   C     C_R   0.106576 0.921310 0.423702 0.725096
O19   O     O_R   0.940610 0.906370 0.587310 -0.545477
C48   C     C_R   0.110859 0.882861 0.613851 0.638901
V4    V     V_3+5 0.829110 0.990690 0.501470 1.567042
O20   O     O_3   0.106080 0.049010 0.489880 -0.354783
C49   C     C_3   0.815739 0.247269 0.698108 0.056079
C50   C     C_3   0.477528 0.287590 0.678723 0.566154
C51   C     C_3   0.488354 0.330236 0.734308 0.058000
H9    H     H_    0.844956 0.284931 0.641790 0.214837
H10   H     H_    0.520220 0.392867 0.704809 0.205532
C52   C     C_1   0.655876 0.379198 0.875529 -0.046394
C53   C     C_3   0.613314 0.213101 0.704807 -0.174796
C54   C     C_3   0.838831 0.297225 0.746446 0.055999
C55   C     C_3   0.652180 0.294890 0.790253 -0.226520
C56   C     C_3   0.619770 0.205980 0.838007 0.571288
C57   C     C_3   0.573857 0.159719 0.786901 0.538422
C58   C     C_1   0.661802 0.342247 0.836491 0.300236
C59   C     C_1   0.602515 0.166530 0.657216 0.345563
C60   C     C_1   0.608136 0.127172 0.619987 -0.026632
H11   H     H_    0.959019 0.274188 0.783180 0.216089
O21   O     O_3   0.901880 0.708874 0.358619 -0.660630
H12   H     H_    0.764950 0.705957 0.369551 0.359305
Cl1   Cl    Cl    0.764667 0.755151 0.161543 -0.544733
O22   O     O_3   0.791624 0.821555 0.272270 -0.566559
H13   H     H_    0.793979 0.854085 0.221049 0.371406
O23   O     O_3   0.397219 0.870599 0.214245 -0.567675
H14   H     H_    0.399467 0.905109 0.242229 0.360997
O24   O     O_3   0.254449 0.508932 0.692268 -0.590910
H15   H     H_    0.267103 0.509265 0.643111 0.324708
Cl2   Cl    Cl    0.951724 0.718384 0.953620 -0.553581
O25   O     O_3   0.061237 0.871921 0.938210 -0.552217
H16   H     H_    0.156293 0.911030 0.937778 0.346887
O26   O     O_3   0.100732 0.999118 0.801687 -0.535535
H17   H     H_    0.058081 0.004318 0.846568 0.385487
O27   O     O_3   0.873757 0.637295 0.270525 -0.598723
H18   H     H_    0.754106 0.638040 0.296043 0.375825
O28   O     O_3   0.657470 0.499225 0.293674 -0.604902
H19   H     H_    0.652195 0.504829 0.340515 0.360007
Cl3   Cl    Cl    0.843959 0.272927 0.049284 -0.543446
O29   O     O_3   0.747157 0.118874 0.065567 -0.524146
H20   H     H_    0.729065 0.062410 0.075468 0.361306
Cl4   Cl    Cl    0.566324 0.003185 0.323955 -0.640711
Cl5   Cl    Cl    0.416589 0.227772 0.445081 -0.570402
Cl6   Cl    Cl    0.511617 0.390731 0.440378 -0.492251
Cl7   Cl    Cl    0.905763 0.395773 0.694219 -0.635558
O30   O     O_3   0.456524 0.670070 0.244224 -0.581088
H21   H     H_    0.462971 0.628798 0.223395 0.350697
O31   O     O_3   0.292468 0.265181 0.673671 -0.545571
H22   H     H_    0.215918 0.313759 0.649528 0.387711
O32   O     O_3   0.529407 0.337360 0.608706 -0.592200
H23   H     H_    0.615536 0.378658 0.609846 0.321696
O33   O     O_3   0.313879 0.332636 0.767852 -0.570183
H24   H     H_    0.266333 0.278850 0.787804 0.377475
Cl8   Cl    Cl    0.692490 0.065402 0.814656 -0.488026
Cl9   Cl    Cl    0.338151 0.126887 0.799317 -0.426975
O34   O     O_3   0.782355 0.174745 0.880554 -0.551806
H25   H     H_    0.882646 0.160224 0.852825 0.355972
Cl10  Cl    Cl    0.985799 0.170692 0.712200 -0.487305
O35   O     O_3   0.223126 0.593862 0.310043 -0.605662
H26   H     H_    0.136785 0.591092 0.349912 0.334996
Cl11  Cl    Cl    0.438169 0.196657 0.904998 -0.418021
O36   O     O_3   0.458870 0.747282 0.325323 -0.574757
H27   H     H_    0.460407 0.764133 0.366820 0.305847
O37   O     O_3   0.124328 0.833663 0.095210 -0.557797
H28   H     H_    0.003607 0.859657 0.099588 0.399227
Cl12  Cl    Cl    0.076342 0.940543 0.173349 -0.612069

loop_
_geom_bond_atom_site_label_1
_geom_bond_atom_site_label_2
_ccdc_geom_bond_type
O12   C45   A    
C37   C38   A    
C59   C60   T    
O11   V4    S    
C53   C57   S    
C27   C28   A    
C10   O22   S    
C21   C22   A    
C11   C14   S    
C1    O6    A    
C5    O27   S    
C56   C57   S    
O31   H22   S    
C57   Cl9   S    
C35   C36   A    
C10   O21   S    
O13   C48   A    
C8    C47   S    
C5    C10   S    
C15   C16   T    
C21   C23   A    
C6    C7    S    
O16   V4    S    
O5    C3    A    
C24   C25   A    
C2    C52   S    
O25   H16   S    
V2    O10   S    
O12   V3    S    
O26   H17   S    
C42   Cl6   S    
C20   C21   A    
O17   V3    S    
O14   C46   A    
O27   H18   S    
C5    Cl1   S    
C44   H8    S    
O8    V2    S    
C17   C18   A    
O11   C46   A    
O15   V3    S    
C27   H4    S    
O1    V2    S    
C54   Cl7   S    
O7    V1    S    
C45   O16   A    
O36   H27   S    
C34   Cl4   S    
O19   V4    S    
C31   Cl3   S    
C8    C14   T    
C54   H11   S    
C41   C42   A    
C31   C36   A    
C18   O25   S    
O9    C4    A    
C17   Cl2   S    
C19   O26   S    
C25   C30   A    
O28   H19   S    
C19   C20   A    
C35   C37   A    
C51   C55   S    
C33   C34   A    
O23   H14   S    
C39   C44   A    
C33   H7    S    
C11   C12   S    
C24   C27   A    
C13   O37   S    
C25   C26   A    
C20   H3    S    
C6    O30   S    
C12   C13   S    
O19   C48   A    
C50   C51   S    
C45   C60   S    
C42   C43   A    
C3    C26   S    
O2    C1    A    
O18   C47   A    
C50   O32   S    
C23   C24   A    
C56   Cl11  S    
O22   H13   S    
C22   C26   A    
C7    O36   S    
O21   H12   S    
C32   C33   A    
O17   V4    S    
O14   V3    S    
O13   V3    S    
C55   C58   S    
O30   H21   S    
C49   C53   S    
O3    C4    A    
C56   O34   S    
C51   H10   S    
C13   H2    S    
O6    V2    S    
O9    V2    S    
C29   C30   A    
O15   C47   A    
O32   H23   S    
C50   C53   S    
C38   C39   A    
C4    C16   S    
O33   H24   S    
O2    V1    S    
C50   O31   S    
C49   H9    S    
C34   C35   A    
O4    C2    A    
C36   C40   A    
O1    C2    A    
C12   Cl12  S    
C51   O33   S    
V3    O20   S    
O5    V1    S    
O37   H28   S    
C49   Cl10  S    
O35   H26   S    
C57   Cl8   S    
C41   Cl5   S    
C23   C48   S    
C5    C9    S    
C38   C41   A    
C18   C19   A    
C7    H1    S    
C6    C9    S    
C7    C11   S    
O7    V2    S    
O4    V1    S    
O3    V1    S    
C52   C58   T    
O34   H25   S    
C32   O29   S    
C12   O23   S    
C39   C40   A    
V1    O10   S    
C53   C59   S    
C6    O35   S    
C28   H5    S    
C43   C44   A    
C29   O24   S    
C49   C54   S    
C10   C11   S    
C9    C13   S    
V4    O20   S    
C30   H6    S    
C54   C55   S    
C31   C32   A    
C28   C29   A    
C1    C40   S    
O24   H15   S    
C17   C22   A    
C9    C15   S    
C55   C56   S    
C43   O28   S    
O18   V4    S    
C37   C46   S    
O29   H20   S    
O8    C3    A    
