data_str_m12_o9_o11_f0_bcu.sym.78
_audit_creation_date              2013-03-05T15:57:37-0500
_audit_creation_method            fapswitch 2.2
_symmetry_space_group_name_H-M    P1
_symmetry_Int_Tables_number       1
_space_group_crystal_system       triclinic
_cell_length_a                    15.097195
_cell_length_b                    15.136649
_cell_length_c                    14.990848
_cell_angle_alpha                 108.48057
_cell_angle_beta                  110.143429
_cell_angle_gamma                 110.007224
_cell_volume                      2629.50854604

loop_
_atom_site_label
_atom_site_type_symbol
_atom_site_description
_atom_site_fract_x
_atom_site_fract_y
_atom_site_fract_z
_atom_type_partial_charge
C1    C     C_R   0.909028 0.974694 0.720901 -0.108573
H1    H     H_    0.824523 0.942576 0.698396 0.106516
N1    N     N_R   0.941940 0.944580 0.650780 -0.047742
C2    C     C_R   0.091216 0.313923 0.550844 0.326257
N2    N     N_R   0.056800 0.208900 0.502740 -0.095580
C3    C     C_R   0.302329 0.204613 0.797827 -0.128491
H2    H     H_    0.330066 0.171954 0.849081 0.117531
N3    N     N_R   0.204460 0.150250 0.707090 -0.054121
C4    C     C_R   0.696055 0.992633 0.401782 0.281849
N4    N     N_R   0.794270 0.003240 0.446420 -0.080565
C5    C     C_R   0.304828 0.295659 0.708088 -0.093371
H3    H     H_    0.334012 0.345216 0.676197 0.194214
N5    N     N_R   0.204920 0.207570 0.650770 -0.068868
C6    C     C_R   0.699348 0.909847 0.501169 -0.176789
H4    H     H_    0.673917 0.857735 0.533401 0.134769
N6    N     N_R   0.793810 0.945920 0.502740 -0.066297
C7    C     C_R   0.908201 0.221852 0.466225 -0.159290
H5    H     H_    0.823751 0.201670 0.431395 0.150823
N7    N     N_R   0.943620 0.152590 0.446420 -0.044249
C8    C     C_R   0.091797 0.063700 0.811751 -0.142340
H6    H     H_    0.177111 0.112444 0.871972 0.127827
N8    N     N_R   0.055110 0.000900 0.707100 -0.049812
C9    C     C_R   0.001767 0.052345 0.823692 0.065897
C10   C     C_R   0.999500 0.323668 0.530931 -0.106601
C11   C     C_R   0.367970 0.294805 0.799550 0.128333
C12   C     C_R   0.637057 0.938672 0.438937 -0.076189
C13   C     C_R   0.730127 0.686965 0.277564 -0.099957
H7    H     H_    0.709938 0.622875 0.297557 0.110898
N9    N     N_R   0.795080 0.792430 0.349230 -0.054306
C14   C     C_R   0.238804 0.020884 0.428504 -0.134485
H8    H     H_    0.241384 0.046386 0.369628 0.121441
N10   N     N_R   0.206190 0.054080 0.497260 -0.051277
C15   C     C_R   0.091742 0.791310 0.592522 -0.036188
H9    H     H_    0.176460 0.817474 0.644154 0.116494
N11   N     N_R   0.056380 0.847410 0.553580 -0.048079
C16   C     C_R   0.907735 0.000580 0.199772 -0.102435
H10   H     H_    0.824882 0.981859 0.154031 0.151535
N12   N     N_R   0.944890 0.999100 0.292900 -0.039566
C17   C     C_R   0.089192 0.089594 0.287199 -0.122579
H11   H     H_    0.172669 0.147285 0.316605 0.118949
N13   N     N_R   0.058060 0.055420 0.349220 -0.045091
C18   C     C_R   0.909199 0.700467 0.502192 -0.057815
H12   H     H_    0.824986 0.642535 0.470748 0.089623
N14   N     N_R   0.943200 0.791100 0.497260 -0.041846
C19   C     C_R   0.733256 0.779768 0.186166 -0.088036
H13   H     H_    0.714776 0.800893 0.122464 0.122616
N15   N     N_R   0.795540 0.849750 0.292910 -0.042210
C20   C     C_R   0.253859 0.940498 0.530618 -0.067691
H14   H     H_    0.275345 0.896413 0.570142 0.143898
N16   N     N_R   0.205730 0.996760 0.553580 -0.055389
Ni1   Ni    Ni4+2 0.869690 0.869690 0.500000 0.214734
Ni2   Ni    Ni4+2 0.130310 0.130310 0.500000 0.247190
Ni3   Ni    Ni4+2 0.129250 0.998840 0.629170 0.215194
Ni4   Ni    Ni4+2 0.870750 0.001160 0.370830 0.290240
C21   C     C_R   0.693197 0.677553 0.175015 0.140915
C22   C     C_R   0.278138 0.957790 0.454171 0.061444
C23   C     C_R   0.000970 0.700300 0.562344 0.053750
C24   C     C_R   0.995767 0.053774 0.190688 0.027587
H15   H     H_    0.486733 0.489865 0.356382 0.126224
C25   C     C_R   0.478827 0.601124 0.298367 -0.100772
H16   H     H_    0.491835 0.565278 0.232951 0.116508
C26   C     C_R   0.466015 0.690509 0.313208 -0.155128
H17   H     H_    0.467010 0.720892 0.256899 0.156080
C27   C     C_R   0.456806 0.743517 0.402429 -0.069987
C28   C     C_R   0.457731 0.703189 0.476261 0.356759
C29   C     C_R   0.465889 0.609764 0.456751 -0.104297
H18   H     H_    0.467391 0.577722 0.512040 0.180118
C30   C     C_R   0.477244 0.559736 0.368888 -0.141059
C31   C     C_R   0.366194 0.852712 0.423099 -0.134608
H19   H     H_    0.301215 0.786213 0.416338 0.168477
C32   C     C_R   0.362520 0.947130 0.436390 0.028982
C33   C     C_R   0.446390 0.034311 0.443986 0.018607
C34   C     C_R   0.534009 0.026482 0.444682 -0.150881
H20   H     H_    0.601221 0.095557 0.456902 0.124029
C35   C     C_R   0.537915 0.933180 0.431136 0.124390
C36   C     C_R   0.453972 0.844376 0.419580 0.090631
C37   C     C_R   0.446106 0.153602 0.361482 -0.152047
H21   H     H_    0.446757 0.098339 0.295150 0.162433
C38   C     C_R   0.442906 0.244218 0.360169 -0.177072
H22   H     H_    0.444259 0.260316 0.295685 0.132287
C39   C     C_R   0.436381 0.313341 0.441497 -0.079198
H23   H     H_    0.429091 0.380933 0.438017 0.139333
C40   C     C_R   0.439107 0.295095 0.527499 0.002001
H24   H     H_    0.430677 0.347062 0.587691 0.191559
C41   C     C_R   0.450591 0.209209 0.534193 -0.147654
H25   H     H_    0.454104 0.197172 0.602549 0.140038
C42   C     C_R   0.447457 0.133878 0.447433 0.087645
H26   H     H_    0.847205 0.199107 0.031759 0.140084
C43   C     C_R   0.988460 0.314940 0.190536 -0.185525
H27   H     H_    0.042132 0.328914 0.157522 0.167738
C44   C     C_R   0.029201 0.375081 0.302967 0.388674
C45   C     C_R   0.954286 0.357339 0.341684 -0.041902
C46   C     C_R   0.843724 0.276890 0.268230 -0.078085
H28   H     H_    0.785124 0.264721 0.295699 0.130445
C47   C     C_R   0.805653 0.218599 0.157397 -0.052341
H29   H     H_    0.719413 0.160284 0.101325 0.137702
C48   C     C_R   0.877430 0.239892 0.118384 -0.155243
C49   C     C_R   0.983396 0.532132 0.459551 0.356760
C50   C     C_R   0.001485 0.605856 0.557684 -0.111665
C51   C     C_R   0.014177 0.586117 0.645377 -0.000024
C52   C     C_R   0.011328 0.490597 0.634250 -0.171263
H30   H     H_    0.021813 0.473026 0.700720 0.139524
C53   C     C_R   0.995584 0.417765 0.537395 0.098684
C54   C     C_R   0.980280 0.436812 0.448797 -0.065198
C55   C     C_R   0.116000 0.766345 0.814698 -0.106122
H31   H     H_    0.182424 0.791949 0.798773 0.140668
C56   C     C_R   0.121721 0.839131 0.904807 -0.094084
H32   H     H_    0.191737 0.920322 0.957270 0.118760
C57   C     C_R   0.036971 0.807250 0.927011 -0.104287
H33   H     H_    0.041354 0.863834 0.996553 0.110098
C58   C     C_R   0.946745 0.702237 0.859555 -0.078853
H34   H     H_    0.881205 0.677467 0.876872 0.134951
C59   C     C_R   0.940544 0.629355 0.769098 -0.152119
H35   H     H_    0.869365 0.548811 0.716434 0.135194
C60   C     C_R   0.024666 0.661284 0.745385 0.124626
C61   C     C_2   0.553763 0.455362 0.887905 0.441883
C62   C     C_2   0.483541 0.368172 0.883290 -0.375963
H36   H     H_    0.508069 0.359459 0.955532 0.149859
C63   C     C_2   0.640455 0.548594 0.995429 -0.208167
C64   C     C_2   0.616146 0.578428 0.073548 -0.241245
H37   H     H_    0.719448 0.598876 0.007254 0.151784
H38   H     H_    0.535803 0.532532 0.060903 0.131484
H39   H     H_    0.496738 0.403032 0.108901 0.108423
C65   C     C_R   0.392842 0.265489 0.108551 -0.119264
H40   H     H_    0.456672 0.247231 0.138795 0.125073
C66   C     C_R   0.289280 0.203155 0.090427 -0.196466
H41   H     H_    0.273162 0.135880 0.106151 0.118241
C67   C     C_R   0.206180 0.226275 0.050097 0.123982
C68   C     C_R   0.227483 0.311586 0.026977 -0.102764
H42   H     H_    0.163843 0.329547 0.994729 0.115184
C69   C     C_R   0.331742 0.374416 0.046380 -0.104172
H43   H     H_    0.348494 0.440948 0.029649 0.116707
C70   C     C_R   0.414755 0.352474 0.089229 -0.133384
C71   C     C_R   0.090150 0.151989 0.118077 -0.228948
H44   H     H_    0.164580 0.198867 0.196712 0.152022
C72   C     C_R   0.991650 0.079040 0.102703 0.063350
C73   C     C_R   0.893851 0.029757 0.001645 0.048688
C74   C     C_R   0.900013 0.050465 0.919819 -0.242551
H45   H     H_    0.824375 0.012704 0.844262 0.148931
C75   C     C_R   0.000942 0.096773 0.926233 0.049461
C76   C     C_R   0.096890 0.159071 0.030167 0.012519
C77   C     C_R   0.776435 0.840733 0.951564 -0.193092
H46   H     H_    0.846488 0.829756 0.968585 0.127271
C78   C     C_R   0.675401 0.754651 0.914759 -0.139939
H47   H     H_    0.669459 0.679081 0.904627 0.187190
C79   C     C_R   0.583902 0.767019 0.892753 -0.045150
H48   H     H_    0.505976 0.700102 0.865730 0.194752
C80   C     C_R   0.593103 0.865653 0.904780 0.325294
C81   C     C_R   0.694123 0.951828 0.939953 -0.214236
H49   H     H_    0.699404 0.026342 0.945126 0.133909
C82   C     C_R   0.787225 0.940862 0.967249 0.069740
N17   N     N_R   0.196579 0.396614 0.584147 0.239773
O1    O     O_R   0.244912 0.376620 0.529775 -0.402651
O2    O     O_R   0.238543 0.494845 0.659958 -0.328981
N18   N     N_R   0.456753 0.758324 0.573512 0.229786
O3    O     O_R   0.507825 0.863380 0.627643 -0.429731
O4    O     O_R   0.419300 0.704652 0.617416 -0.300594
N19   N     N_R   0.144382 0.454845 0.373592 0.254469
O5    O     O_R   0.212452 0.452502 0.339491 -0.409677
O6    O     O_R   0.182734 0.531218 0.470859 -0.297993
N20   N     N_R   0.966893 0.553913 0.370135 0.231069
O7    O     O_R   0.870884 0.498524 0.282256 -0.423382
O8    O     O_R   0.047899 0.628829 0.376511 -0.380313
N21   N     N_R   0.649121 0.995609 0.302071 0.217477
O9    O     O_R   0.707347 0.018834 0.257294 -0.454328
O10   O     O_R   0.544517 0.958351 0.246377 -0.422285
N22   N     N_R   0.544549 0.463693 0.793345 0.193115
O11   O     O_R   0.494797 0.512596 0.761913 -0.428698
O12   O     O_R   0.616624 0.459381 0.766144 -0.451025
I1    I     I_    0.454886 0.884423 0.869423 -0.321737

loop_
_geom_bond_atom_site_label_1
_geom_bond_atom_site_label_2
_geom_bond_distance
_ccdc_geom_bond_type
C29   C30   1.396320 A    
C46   H28   1.083356 S    
N11   Ni3   1.875501 S    
C56   C57   1.397645 A    
C34   H20   1.086735 S    
C55   H31   1.081852 S    
C58   H34   1.082476 S    
N6    Ni1   1.884755 S    
C67   C68   1.402634 A    
C33   C42   1.485851 S    
N20   O7    1.300927 A    
N21   O10   1.301159 A    
C17   N13   1.338813 A    
C41   H25   1.083328 S    
C55   C56   1.398937 A    
N3    N5    1.389233 A    
C65   C70   1.391638 A    
N9    N15   1.389232 A    
C40   H24   1.070868 S    
C45   C46   1.405235 A    
C16   H10   1.076394 S    
C59   H35   1.083247 S    
C16   C24   1.376631 A    
C81   C82   1.406139 A    
C14   H8    1.076518 S    
C2    C10   1.382429 A    
C49   C50   1.399290 A    
C13   C21   1.382359 A    
C3    C11   1.371413 A    
N18   O4    1.301476 A    
C5    C11   1.381391 A    
C23   C50   1.411827 S    
C61   C62   1.343392 D    
C31   C36   1.390388 A    
C25   C26   1.391183 A    
C1    H1    1.073766 S    
C31   C32   1.402370 A    
N10   Ni2   1.884756 S    
C44   N19   1.444789 S    
C26   C27   1.405734 A    
C53   C54   1.406230 A    
N20   O8    1.300951 A    
C47   H29   1.081815 S    
C7    H5    1.079515 S    
C80   I1    2.110772 S    
C56   H32   1.082579 S    
C61   N22   1.426242 S    
C43   C44   1.406364 A    
C4    N4    1.325811 A    
N13   Ni2   1.848046 S    
H26   C48   1.080064 S    
C41   C42   1.405172 A    
C29   H18   1.082643 S    
C52   C53   1.395784 A    
N19   O6    1.299864 A    
C34   C35   1.386594 A    
C51   C60   1.482921 S    
C18   N14   1.326491 A    
C18   C23   1.369695 A    
C39   C40   1.391780 A    
C64   H38   1.082285 S    
C4    C12   1.379501 A    
C39   H23   1.080990 S    
N8    Ni3   1.876165 S    
C79   C80   1.396772 A    
C21   C64   1.434660 S    
C19   N15   1.332044 A    
C2    N17   1.428534 S    
C37   C42   1.407020 A    
N18   O3    1.301434 A    
C7    C10   1.376138 A    
N16   Ni3   1.876598 S    
C52   H30   1.084830 S    
C9    C75   1.476092 S    
C75   C76   1.412257 A    
N12   N13   1.382833 A    
N22   O12   1.300730 A    
N22   O11   1.300752 A    
C38   C39   1.391185 A    
N1    Ni1   1.848044 S    
C33   C34   1.364733 A    
C3    N3    1.335922 A    
C24   C72   1.472884 S    
C37   H21   1.083333 S    
C17   C24   1.396588 A    
C14   C22   1.369835 A    
C6    C12   1.370999 A    
C43   C48   1.392650 A    
C25   H16   1.078355 S    
C1    N1    1.330642 A    
C77   C82   1.399159 A    
C4    N21   1.439945 S    
C35   C36   1.406572 A    
C26   H17   1.083692 S    
C67   C76   1.471646 S    
H15   C30   1.081980 S    
N5    Ni2   1.847774 S    
C50   C51   1.403148 A    
N12   Ni4   1.876165 S    
C8    C9    1.391487 A    
C5    H3    1.063779 S    
C22   C32   1.437796 S    
C15   H9    1.081211 S    
C27   C36   1.483946 S    
C37   C38   1.394942 A    
C58   C59   1.399321 A    
C80   C81   1.397966 A    
N11   N14   1.382956 A    
N10   N16   1.389232 A    
C3    H2    1.082092 S    
C63   H37   1.086588 S    
C74   C75   1.395659 A    
N15   Ni4   1.874800 S    
N7    Ni4   1.875501 S    
C78   C79   1.397979 A    
C20   H14   1.080720 S    
C40   C41   1.398278 A    
H39   C70   1.077935 S    
C1    C9    1.398578 A    
N19   O5    1.301520 A    
C6    N6    1.329806 A    
C18   H12   1.081608 S    
C8    N8    1.329434 A    
C69   H43   1.081934 S    
C44   C45   1.425214 A    
C49   N20   1.440093 S    
N14   Ni1   1.884742 S    
C65   C66   1.394285 A    
C79   H48   1.081829 S    
N9    Ni1   1.847776 S    
C20   C22   1.389257 A    
N21   O9    1.300537 A    
C66   C67   1.405043 A    
N2    Ni2   1.884743 S    
C77   H46   1.082822 S    
C55   C60   1.405384 A    
N17   O2    1.300781 A    
C72   C73   1.421563 A    
C69   C70   1.399719 A    
C11   C62   1.461237 S    
N3    Ni3   1.874800 S    
C71   C72   1.400999 A    
C63   C64   1.335738 D    
C47   C48   1.391827 A    
C71   H44   1.080532 S    
N2    N7    1.382954 A    
C15   C23   1.366203 A    
C73   C74   1.383464 A    
C61   C63   1.464134 S    
C78   H47   1.072293 S    
C25   C30   1.392007 A    
C27   C28   1.421725 A    
C10   C53   1.419724 S    
C57   C58   1.398345 A    
C68   H42   1.083006 S    
C32   C33   1.421162 A    
C28   N18   1.440155 S    
N4    N6    1.389232 A    
C81   H49   1.078549 S    
C16   N12   1.324089 A    
C14   N10   1.322032 A    
C5    N5    1.340185 A    
C15   N11   1.325413 A    
C46   C47   1.391127 A    
C59   C60   1.404534 A    
C13   N9    1.334235 A    
C66   H41   1.083459 S    
C49   C54   1.382335 A    
C20   N16   1.334751 A    
C51   C52   1.385575 A    
C7    N7    1.329976 A    
C77   C78   1.390486 A    
C31   H19   1.084887 S    
N4    Ni4   1.876598 S    
C74   H45   1.079696 S    
C45   C54   1.482508 S    
C38   H22   1.074140 S    
C17   H11   1.079547 S    
C19   H13   1.078491 S    
C2    N2    1.329330 A    
C8    H6    1.070011 S    
C19   C21   1.383329 A    
C12   C35   1.431445 S    
C28   C29   1.407950 A    
C57   H33   1.082770 S    
C13   H7    1.081084 S    
C6    H4    1.079463 S    
C73   C82   1.474460 S    
N1    N8    1.382832 A    
N17   O1    1.301055 A    
C68   C69   1.396996 A    
C43   H27   1.082383 S    
C62   H36   1.084016 S    
C65   H40   1.082268 S    
C71   C76   1.390330 A    
