data_str_m9_o16_o22_f0_sra.sym.35
_audit_creation_date              2012-12-11T15:11:45-0500
_audit_creation_method            fapswitch 2.2
_symmetry_space_group_name_H-M    P1
_symmetry_Int_Tables_number       1
_space_group_crystal_system       triclinic
_cell_length_a                    20.156751
_cell_length_b                    7.098393
_cell_length_c                    13.437748
_cell_angle_alpha                 89.981651
_cell_angle_beta                  103.581702
_cell_angle_gamma                 90.029848
_cell_volume                      1868.91420887

loop_
_atom_site_label
_atom_site_type_symbol
_atom_type_description
_atom_site_fract_x
_atom_site_fract_y
_atom_site_fract_z
_atom_type_partial_charge
O1    O     O_R   0.449830 0.506740 0.599960 -0.540523
O2    O     O_R   0.550170 0.006740 0.400040 -0.530483
O3    O     O_R   0.588980 0.179860 0.596720 -0.545750
O4    O     O_R   0.411020 0.679860 0.403280 -0.543919
C1    C     C_R   0.616318 0.344616 0.619336 0.654298
C2    C     C_R   0.383625 0.844574 0.380812 0.668195
O5    O     O_R   0.452740 0.177340 0.612040 -0.531756
O6    O     O_R   0.547260 0.677340 0.387960 -0.530714
O7    O     O_R   0.412960 0.002070 0.415460 -0.541821
O8    O     O_R   0.587040 0.502070 0.584540 -0.547877
C3    C     C_R   0.437165 0.345685 0.639600 0.712402
C4    C     C_R   0.562780 0.845791 0.360299 0.734810
O9    O     O_3   0.487110 0.337570 0.435490 -0.360978
O10   O     O_3   0.512890 0.837570 0.564510 -0.377462
V1    V     V_3+5 0.502390 0.064650 0.511970 1.468176
V2    V     V_3+5 0.497610 0.564650 0.488030 1.463008
C5    C     C_R   0.605832 0.846253 0.102091 0.513003
C6    C     C_R   0.394242 0.337845 0.897657 0.427048
H1    H     H_    0.513336 0.839515 0.156904 0.188349
H2    H     H_    0.486629 0.331946 0.842622 0.191229
H3    H     H_    0.694061 0.847035 0.976317 0.187020
H4    H     H_    0.306087 0.329522 0.023410 0.189639
C7    C     C_R   0.601759 0.852963 0.281193 -0.122766
C8    C     C_R   0.398254 0.352370 0.718723 -0.122450
C9    C     C_R   0.930461 0.863904 0.318731 -0.172139
C10   C     C_R   0.069707 0.370820 0.681518 -0.171060
C11   C     C_R   0.894490 0.862604 0.395032 -0.126911
C12   C     C_R   0.105668 0.372475 0.605223 -0.126023
C13   C     C_R   0.823377 0.859827 0.369843 -0.162257
C14   C     C_R   0.176750 0.367072 0.630355 -0.165496
C15   C     C_R   0.785904 0.857854 0.266212 0.114279
C16   C     C_R   0.214200 0.359120 0.733912 0.109688
C17   C     C_R   0.823331 0.857178 0.188551 0.080016
C18   C     C_R   0.176775 0.354859 0.811549 0.080992
C19   C     C_R   0.712810 0.856217 0.237293 0.027463
C20   C     C_R   0.287274 0.355276 0.762761 0.040768
C21   C     C_R   0.678445 0.851118 0.131354 -0.009277
C22   C     C_R   0.321641 0.344291 0.868570 -0.013074
C23   C     C_R   0.717386 0.850319 0.057309 -0.116560
C24   C     C_R   0.282719 0.338899 0.942577 -0.159598
C25   C     C_R   0.788063 0.853650 0.085228 -0.239690
C26   C     C_R   0.212041 0.344930 0.914767 -0.229067
C27   C     C_R   0.672729 0.858939 0.310556 -0.223867
C28   C     C_R   0.327335 0.361082 0.689514 -0.217695
C29   C     C_R   0.568546 0.845787 0.177890 -0.129518
C30   C     C_R   0.431453 0.340218 0.821823 -0.144299
C31   C     C_R   0.895666 0.860935 0.215842 -0.075219
C32   C     C_R   0.104460 0.361727 0.784316 -0.077383
H5    H     H_    0.694800 0.863832 0.391663 0.100778
H6    H     H_    0.305286 0.369760 0.608501 0.099548
H7    H     H_    0.985754 0.867579 0.339939 0.098176
H8    H     H_    0.014447 0.377214 0.660384 0.098326
H9    H     H_    0.799717 0.858937 0.433755 0.100689
H10   H     H_    0.200398 0.369178 0.566438 0.101004
H11   H     H_    0.921951 0.864436 0.474633 0.117773
H12   H     H_    0.078232 0.379045 0.525690 0.117770
H13   H     H_    0.814971 0.852730 0.024342 0.108779
H14   H     H_    0.185130 0.340853 0.975620 0.109681
C33   C     C_3   0.238886 0.762168 0.134219 -0.326315
C34   C     C_3   0.761146 0.260446 0.865632 -0.315474
H15   H     H_    0.221823 0.615636 0.112476 0.140699
H16   H     H_    0.778310 0.113746 0.886568 0.137892
H17   H     H_    0.240310 0.838573 0.062413 0.148474
H18   H     H_    0.759768 0.335399 0.937848 0.153576
C35   C     C_3   0.311707 0.757310 0.205745 -0.304164
C36   C     C_3   0.688263 0.255914 0.794234 -0.288335
H19   H     H_    0.348011 0.831149 0.168153 0.175017
H20   H     H_    0.651999 0.328924 0.832168 0.183166
H21   H     H_    0.328870 0.608326 0.217816 0.173687
H22   H     H_    0.671045 0.106965 0.781810 0.164163
H23   H     H_    0.169791 0.603662 0.269409 0.140224
H24   H     H_    0.830411 0.105256 0.729813 0.139965
H25   H     H_    0.276788 0.596997 0.375185 0.134976
H26   H     H_    0.723314 0.098300 0.624349 0.133435
C37   C     C_3   0.187875 0.750543 0.287867 -0.325756
C38   C     C_3   0.812114 0.252085 0.711915 -0.327981
C39   C     C_3   0.215016 0.062667 0.218200 -0.309530
C40   C     C_3   0.784695 0.562680 0.782785 -0.305234
C41   C     C_3   0.187744 0.859910 0.187827 0.113356
C42   C     C_3   0.812178 0.359858 0.812359 0.105771
H27   H     H_    0.180147 0.137374 0.258062 0.136396
H28   H     H_    0.819491 0.638655 0.743245 0.136220
H29   H     H_    0.216376 0.145253 0.148257 0.138767
H30   H     H_    0.783237 0.644036 0.853066 0.138735
C43   C     C_3   0.312609 0.851723 0.310400 0.096830
C44   C     C_3   0.687290 0.351738 0.689846 0.088829
C45   C     C_3   0.260631 0.746116 0.359458 -0.322496
C46   C     C_3   0.739332 0.247462 0.640432 -0.316292
C47   C     C_3   0.287369 0.057833 0.289094 -0.312849
C48   C     C_3   0.712368 0.557873 0.711811 -0.317243
H31   H     H_    0.322983 0.137478 0.252607 0.170770
H32   H     H_    0.676667 0.636592 0.748478 0.152411
H33   H     H_    0.286666 0.130075 0.362375 0.129898
H34   H     H_    0.713062 0.631080 0.638769 0.133007
H35   H     H_    0.151916 0.818274 0.328364 0.122369
H36   H     H_    0.847935 0.321131 0.671588 0.123220
H37   H     H_    0.259512 0.812011 0.434182 0.131074
H38   H     H_    0.740333 0.314239 0.565858 0.132373
O11   O     O_R   0.912980 0.203550 0.915410 -0.539334
O12   O     O_R   0.087020 0.703550 0.084590 -0.539438
O13   O     O_R   0.047270 0.535570 0.887960 -0.537854
O14   O     O_R   0.952730 0.035570 0.112040 -0.537769
C49   C     C_R   0.064199 0.368416 0.861942 0.690536
C50   C     C_R   0.935945 0.868271 0.138235 0.691107
O15   O     O_R   0.911030 0.532970 0.903270 -0.546751
O16   O     O_R   0.088970 0.032970 0.096730 -0.547001
O17   O     O_R   0.949820 0.708150 0.099970 -0.535705
O18   O     O_R   0.050180 0.208150 0.900030 -0.535853
C51   C     C_R   0.883569 0.365237 0.882281 0.653185
C52   C     C_R   0.116394 0.865266 0.117815 0.651927
O19   O     O_3   0.012900 0.375230 0.064480 -0.372634
O20   O     O_3   0.987100 0.875230 0.935520 -0.372620
V3    V     V_3+5 0.997610 0.648190 0.988040 1.396592
V4    V     V_3+5 0.002390 0.148190 0.011960 1.396634
S1    S     S_3+6 0.559934 0.838653 0.971860 0.015196
O21   O     O_2   0.484285 0.831896 0.963294 -0.314976
O22   O     O_2   0.576587 0.011300 0.917610 -0.354565
O23   O     O_3   0.583421 0.645737 0.916036 -0.518889
H39   H     H_    0.560502 0.657802 0.842561 0.339554
S2    S     S_3+6 0.440498 0.323950 0.027688 0.045962
O24   O     O_2   0.422699 0.142314 0.072711 -0.332465
O25   O     O_2   0.516147 0.329362 0.035904 -0.268271
O26   O     O_3   0.419340 0.503998 0.095540 -0.516050
H40   H     H_    0.405862 0.608021 0.045868 0.338576

loop_
_geom_bond_atom_site_label_1
_geom_bond_atom_site_label_2
_ccdc_geom_bond_type
C36   H20   S    
O12   C52   A    
C7    C29   A    
C11   C13   A    
O13   V3    S    
O1    C3    A    
H24   C38   S    
O2    C4    A    
C26   H14   S    
O11   V4    S    
O20   V4    S    
C12   H12   S    
C37   H35   S    
O26   H40   S    
C23   C25   A    
C40   C48   S    
O5    C3    A    
C14   H10   S    
C4    C7    S    
C39   C47   S    
C2    C43   S    
O16   V4    S    
C16   C20   A    
O15   V3    S    
C19   C21   A    
C5    C29   A    
C44   C46   S    
C39   H29   S    
S1    O21   D    
O11   C51   A    
H2    C30   S    
C3    C8    S    
C7    C27   A    
C34   H16   S    
O18   V4    S    
O23   H39   S    
O17   V3    S    
O15   C51   A    
H25   C45   S    
C35   H19   S    
C18   C26   A    
C42   C51   S    
C15   C17   A    
C49   O18   A    
C47   H31   S    
C19   C27   A    
C9    C31   A    
S2    O26   S    
C10   C32   A    
C43   C45   S    
C34   C36   S    
O6    V2    S    
C22   C24   A    
C2    O7    A    
C6    C30   A    
O20   V3    S    
S2    O25   D    
C48   H34   S    
C39   C41   S    
H23   C37   S    
C33   H15   S    
O4    C2    A    
C44   C48   S    
C33   C41   S    
C43   C47   S    
C27   H5    S    
O5    V1    S    
S1    O22   D    
C32   C49   S    
C16   C18   A    
O4    V2    S    
C9    H7    S    
O14   V4    S    
C10   H8    S    
C40   H28   S    
C48   H32   S    
H3    C23   S    
C39   H27   S    
O6    C4    A    
S1    O23   S    
H4    C24   S    
C40   C42   S    
O19   V3    S    
O1    V2    S    
C5    C21   A    
O14   C50   A    
O2    V1    S    
C1    C44   S    
C37   C45   S    
C8    C28   A    
C17   C31   A    
C15   C19   A    
C20   C28   A    
C18   C32   A    
C6    S2    S    
O3    V1    S    
S2    O24   D    
C5    S1    S    
O16   C52   A    
C28   H6    S    
C38   C46   S    
C34   C42   S    
C31   C50   S    
C41   C52   S    
O7    V1    S    
C10   C12   A    
O12   V3    S    
C38   C42   S    
O3    C1    A    
C36   C44   S    
H1    C29   S    
C35   C43   S    
C9    C11   A    
C33   H17   S    
O13   C49   A    
C34   H18   S    
C17   C25   A    
C20   C22   A    
C6    C22   A    
C8    C30   A    
C12   C14   A    
C21   C23   A    
O8    V2    S    
C33   C35   S    
C14   C16   A    
C36   H22   S    
C13   H9    S    
C35   H21   S    
C24   C26   A    
O19   V4    S    
C11   H11   S    
C47   H33   S    
C46   H38   S    
C25   H13   S    
C40   H30   S    
C1    O8    A    
C13   C15   A    
O9    V2    S    
O10   V1    S    
H26   C46   S    
C37   C41   S    
C50   O17   A    
C38   H36   S    
C45   H37   S    
