data_str_m4_o14_o22_f0_acs.sym.41
_audit_creation_date              2012-12-11T14:23:10-0500
_audit_creation_method            fapswitch 2.2
_symmetry_space_group_name_H-M    P1
_symmetry_Int_Tables_number       1
_space_group_crystal_system       triclinic
_cell_length_a                    10.9977
_cell_length_b                    10.985086
_cell_length_c                    18.89299
_cell_angle_alpha                 90.754075
_cell_angle_beta                  89.824023
_cell_angle_gamma                 59.582583
_cell_volume                      1968.01878029

loop_
_atom_site_label
_atom_site_type_symbol
_atom_type_description
_atom_site_fract_x
_atom_site_fract_y
_atom_site_fract_z
_atom_type_partial_charge
C1    C     C_R   0.240418 0.644471 0.611048 0.537877
C2    C     C_R   0.554764 0.194234 0.717846 -0.159606
C3    C     C_R   0.565055 0.189247 0.789843 -0.163542
C4    C     C_R   0.653300 0.622728 0.601110 0.550393
C5    C     C_R   0.930280 0.125621 0.812524 -0.093823
C6    C     C_R   0.045041 0.099425 0.770096 -0.136617
C7    C     C_R   0.038718 0.089914 0.697000 -0.131308
C8    C     C_R   0.916409 0.109695 0.665478 -0.088896
C9    C     C_R   0.666595 0.175859 0.675146 -0.011696
C10   C     C_R   0.193768 0.657194 0.836924 -0.008857
C11   C     C_R   0.198759 0.543266 0.798556 0.022080
C12   C     C_3   0.664222 0.557443 0.799784 -0.250395
C13   C     C_R   0.191418 0.547974 0.723435 0.021438
C14   C     C_R   0.226743 0.749294 0.728166 -0.152640
C15   C     C_R   0.219493 0.752168 0.801180 -0.153927
C16   C     C_R   0.628824 0.227788 0.602618 0.531890
C17   C     C_R   0.210283 0.425153 0.833333 -0.098340
C18   C     C_R   0.199934 0.321198 0.795976 -0.150767
C19   C     C_R   0.175984 0.333773 0.723602 -0.159996
C20   C     C_R   0.170191 0.446427 0.687593 -0.112011
C21   C     C_R   0.206659 0.653147 0.687612 -0.004652
C22   C     C_R   0.683715 0.684374 0.178290 -0.010286
C23   C     C_3   0.699535 0.674883 0.811809 0.045091
C24   C     C_R   0.797549 0.593767 0.222161 0.000974
C25   C     C_R   0.775597 0.531051 0.280163 0.035947
C26   C     C_R   0.522396 0.691430 0.268327 -0.170154
C27   C     C_R   0.545615 0.723258 0.199701 -0.021893
C28   C     C_R   0.269917 0.626517 0.392722 0.529486
C29   C     C_R   0.935668 0.558857 0.207380 -0.069195
C30   C     C_R   0.050678 0.434629 0.230919 -0.101799
C31   C     C_R   0.030097 0.357917 0.281154 -0.144402
C32   C     C_R   0.895265 0.406012 0.306756 -0.090998
C33   C     C_R   0.637332 0.601056 0.310498 -0.021100
C34   C     C_3   0.668699 0.648807 0.676460 0.053913
C35   C     C_R   0.630944 0.164596 0.175464 0.004395
C36   C     C_R   0.549336 0.126183 0.219313 0.023096
C37   C     C_R   0.577032 0.111852 0.292171 0.023745
C38   C     C_R   0.690043 0.250498 0.277406 -0.160772
C39   C     C_R   0.695631 0.232354 0.205159 -0.158005
C40   C     C_R   0.617141 0.584964 0.385988 0.544867
C41   C     C_R   0.437301 0.108396 0.194796 -0.091794
C42   C     C_R   0.371103 0.059223 0.239609 -0.142106
C43   C     C_R   0.418861 0.020165 0.308167 -0.119741
C44   C     C_R   0.523070 0.044135 0.334292 -0.076398
C45   C     C_3   0.818969 0.619767 0.690575 -0.244884
C46   C     C_R   0.643366 0.181152 0.321732 0.002866
C47   C     C_R   0.156146 0.686860 0.181780 0.012407
C48   C     C_R   0.103820 0.803226 0.231198 0.032176
C49   C     C_R   0.104806 0.773996 0.302487 0.021299
C50   C     C_R   0.283719 0.529837 0.275252 -0.169916
C51   C     C_R   0.253783 0.552102 0.203742 -0.180993
C52   C     C_R   0.617507 0.228529 0.395018 0.511533
C53   C     C_R   0.061035 0.945237 0.214398 -0.071615
C54   C     C_R   0.006304 0.050711 0.265986 -0.154002
C55   C     C_R   0.980868 0.022048 0.333876 -0.122762
C56   C     C_3   0.643026 0.544028 0.720280 -0.213451
C57   C     C_R   0.021566 0.884609 0.351034 -0.075660
C58   C     C_R   0.208589 0.640546 0.324341 0.014493
C59   C     C_R   0.703135 0.101622 0.895920 0.534836
C60   C     C_R   0.724423 0.688292 0.887759 0.552437
C61   C     C_R   0.121793 0.703023 0.906508 0.540355
C62   C     C_R   0.671721 0.107201 0.104044 0.540066
C63   C     C_R   0.720154 0.709734 0.106509 0.543427
C64   C     C_3   0.577016 0.815765 0.781957 -0.228566
C65   C     C_R   0.098488 0.709718 0.110881 0.537207
C66   C     C_3   0.562321 0.801661 0.701632 -0.242728
C67   C     C_R   0.690485 0.156565 0.823645 -0.010350
C68   C     C_3   0.836062 0.638076 0.769917 -0.220916
C69   C     C_1   0.429352 0.789129 0.151429 0.212061
C70   C     C_R   0.805945 0.141543 0.782172 0.018925
C71   C     C_R   0.796183 0.142765 0.706821 0.014470
Cr1   Cr    Cr6+3 0.392940 0.397950 0.502230 1.003269
Cr2   Cr    Cr6+3 0.398400 0.708500 0.501260 0.992779
Cr3   Cr    Cr6+3 0.708640 0.393530 0.496460 0.978671
Cr4   Cr    Cr6+3 0.937880 0.938320 0.007620 1.013776
Cr5   Cr    Cr6+3 0.625560 0.937220 0.994510 1.016006
Cr6   Cr    Cr6+3 0.938080 0.625010 0.001190 1.002725
H1    H     H_    0.597787 0.903646 0.791906 0.148063
H2    H     H_    0.919111 0.094457 0.608764 0.132857
H3    H     H_    0.249862 0.823106 0.703375 0.136897
H4    H     H_    0.475897 0.843901 0.809110 0.116533
H5    H     H_    0.233150 0.409060 0.889202 0.131818
H6    H     H_    0.226882 0.834241 0.829686 0.136659
H7    H     H_    0.211189 0.231066 0.823816 0.105629
H8    H     H_    0.164090 0.255169 0.694745 0.115506
H9    H     H_    0.144375 0.453790 0.632233 0.139923
H10   H     H_    0.415659 0.733947 0.288176 0.126768
H11   H     H_    0.949258 0.632623 0.179491 0.145589
H12   H     H_    0.717102 0.433383 0.702693 0.153184
H13   H     H_    0.155042 0.395174 0.210150 0.125093
H14   H     H_    0.118141 0.262230 0.301244 0.118829
H15   H     H_    0.452549 0.829297 0.690101 0.127208
H16   H     H_    0.889850 0.337084 0.344974 0.138871
H17   H     H_    0.722244 0.319130 0.299001 0.125108
H18   H     H_    0.391634 0.141467 0.143157 0.148460
H19   H     H_    0.748801 0.272203 0.172650 0.130916
H20   H     H_    0.283233 0.050020 0.220814 0.122289
H21   H     H_    0.371004 0.976863 0.342020 0.131365
H22   H     H_    0.555003 0.017340 0.388706 0.134293
H23   H     H_    0.925252 0.538305 0.789663 0.168248
H24   H     H_    0.366403 0.427451 0.292267 0.143849
H25   H     H_    0.079320 0.978810 0.164280 0.176182
H26   H     H_    0.305640 0.465220 0.165944 0.117663
H27   H     H_    0.582471 0.877782 0.673015 0.118921
H28   H     H_    0.978590 0.155622 0.251450 0.112522
H29   H     H_    0.934226 0.104751 0.373723 0.128765
H30   H     H_    0.003362 0.863479 0.404697 0.139531
H31   H     H_    0.862789 0.722418 0.778065 0.127331
H32   H     H_    0.840382 0.692574 0.659628 0.112840
H33   H     H_    0.751215 0.455093 0.819316 0.134560
H34   H     H_    0.897176 0.509962 0.673705 0.146647
H35   H     H_    0.566646 0.582457 0.829655 0.120344
H36   H     H_    0.534302 0.564457 0.711409 0.129715
H37   H     H_    0.454987 0.217352 0.695841 0.166017
H38   H     H_    0.940188 0.137361 0.868549 0.145172
H39   H     H_    0.474997 0.201933 0.819136 0.153541
H40   H     H_    0.141508 0.080990 0.794232 0.091375
H41   H     H_    0.130020 0.064486 0.664485 0.100008
N1    N     N_1   0.337709 0.841330 0.111740 -0.312889
O1    O     O_R   0.507340 0.255690 0.581430 -0.523505
O2    O     O_R   0.837290 0.593240 0.915240 -0.521650
O3    O     O_R   0.065320 0.635310 0.931580 -0.512850
O4    O     O_R   0.280360 0.527380 0.578910 -0.505014
O5    O     O_R   0.068470 0.828620 0.091850 -0.515644
O6    O     O_R   0.799150 0.057200 0.079350 -0.501206
O7    O     O_R   0.585220 0.080180 0.076770 -0.542323
O8    O     O_R   0.627170 0.809480 0.067050 -0.478354
O9    O     O_R   0.816200 0.596410 0.076500 -0.514992
O10   O     O_R   0.045770 0.638240 0.081070 -0.535844
O11   O     O_3   0.833840 0.833520 0.001110 -0.261192
O12   O     O_R   0.524510 0.695820 0.424050 -0.503297
O13   O     O_R   0.260600 0.739610 0.584580 -0.527800
O14   O     O_R   0.532370 0.695050 0.573830 -0.504917
O15   O     O_R   0.744850 0.503430 0.576380 -0.522879
O16   O     O_R   0.699080 0.276500 0.571950 -0.512943
O17   O     O_R   0.498860 0.256520 0.419860 -0.524878
O18   O     O_R   0.272490 0.528150 0.429140 -0.493017
O19   O     O_R   0.252110 0.740440 0.423010 -0.535595
O20   O     O_R   0.736370 0.504260 0.414810 -0.524910
O21   O     O_R   0.691220 0.277270 0.422180 -0.543944
O22   O     O_3   0.499990 0.499990 0.499980 -0.272401
O23   O     O_R   0.089570 0.825450 0.930590 -0.513454
O24   O     O_R   0.818700 0.054260 0.929860 -0.510651
O25   O     O_R   0.606310 0.077010 0.915520 -0.534928
O26   O     O_R   0.646730 0.806540 0.917560 -0.503426

loop_
_geom_bond_atom_site_label_1
_geom_bond_atom_site_label_2
_ccdc_geom_bond_type
Cr2   O12   S    
C34   C56   S    
Cr5   O7    S    
C41   C42   A    
C19   C20   A    
C43   H21   S    
C30   H13   S    
C1    O13   A    
C34   C66   S    
C12   H33   S    
C7    C8    A    
Cr2   O22   S    
C53   C54   A    
C1    C21   S    
C12   C23   S    
C26   C27   A    
C29   C30   A    
C14   C21   A    
C36   C37   A    
C9    C16   S    
C18   C19   A    
C10   C15   A    
C16   O1    A    
C30   C31   A    
C44   H22   S    
C45   H32   S    
Cr1   O17   S    
Cr2   O19   S    
C51   H26   S    
C40   O20   A    
C46   C52   S    
C49   C57   A    
C17   H5    S    
C65   O5    A    
C41   H18   S    
C24   C29   A    
C29   H11   S    
Cr6   O3    S    
C59   C67   S    
C22   C63   S    
Cr5   O11   S    
C11   C17   A    
C35   C36   A    
C26   H10   S    
C20   H9    S    
C8    H2    S    
C18   H7    S    
C56   H36   S    
C70   C71   A    
C14   H3    S    
C6    H40   S    
C63   O9    A    
C27   C69   S    
Cr4   O11   S    
C25   C32   A    
C32   H16   S    
Cr2   O13   S    
C59   O24   A    
C5    H38   S    
C23   C60   S    
C7    H41   S    
C38   H17   S    
C36   C41   A    
Cr1   O22   S    
C50   C51   A    
C48   C53   A    
C39   H19   S    
C4    C34   S    
C33   C40   S    
C55   H29   S    
Cr4   O5    S    
C50   C58   A    
C47   C48   A    
C66   H27   S    
C2    H37   S    
C28   O19   A    
C24   C25   A    
C42   H20   S    
C62   O7    A    
C66   H15   S    
Cr3   O21   S    
C69   N1    T    
C49   C58   A    
C61   O3    A    
Cr4   O6    S    
C64   C66   S    
C23   C68   S    
C35   C39   A    
C43   C44   A    
C1    O4    A    
C5    C70   A    
Cr4   O23   S    
C26   C33   A    
C65   O10   A    
C31   C32   A    
C53   H25   S    
Cr3   O16   S    
Cr1   O1    S    
C45   C68   S    
C17   C18   A    
C13   C21   A    
C34   C45   S    
Cr6   O10   S    
C12   C56   S    
Cr6   O9    S    
Cr4   O24   S    
Cr5   O25   S    
Cr1   O18   S    
C57   H30   S    
C40   O12   A    
Cr2   O14   S    
C59   O25   A    
C31   H14   S    
C22   C27   A    
C55   C57   A    
Cr1   O4    S    
C52   O17   A    
C22   C24   A    
C10   C61   S    
C42   C43   A    
C12   H35   S    
C4    O15   A    
C16   O16   A    
C56   H12   S    
C54   C55   A    
C48   C49   A    
C8    C71   A    
C13   C20   A    
C38   C39   A    
C64   H1    S    
C68   H23   S    
Cr3   O22   S    
C3    C67   A    
C28   O18   A    
C9    C71   A    
C19   H8    S    
Cr5   O26   S    
C62   O6    A    
C47   C51   A    
C45   H34   S    
C6    C7    A    
C28   C58   S    
Cr3   O20   S    
C3    H39   S    
C67   C70   A    
C37   C44   A    
C2    C3    A    
C23   C64   S    
C11   C13   A    
C5    C6    A    
C54   H28   S    
C15   H6    S    
Cr3   O15   S    
C52   O21   A    
C35   C62   S    
Cr6   O11   S    
C60   O2    A    
C64   H4    S    
C38   C46   A    
Cr6   O2    S    
C10   C11   A    
C61   O23   A    
C50   H24   S    
C60   O26   A    
Cr5   O8    S    
C14   C15   A    
C68   H31   S    
C37   C46   A    
C2    C9    A    
C47   C65   S    
C63   O8    A    
C25   C33   A    
C4    O14   A    
