data_str_m2_o10_o14_f0_pcu.sym.192
_audit_creation_date              2012-12-10T16:43:26-0500
_audit_creation_method            fapswitch 2.2
_symmetry_space_group_name_H-M    P1
_symmetry_Int_Tables_number       1
_space_group_crystal_system       triclinic
_cell_length_a                    10.819718
_cell_length_b                    8.680868
_cell_length_c                    7.519547
_cell_angle_alpha                 102.723579
_cell_angle_beta                  94.898833
_cell_angle_gamma                 94.499702
_cell_volume                      682.964274257

loop_
_atom_site_label
_atom_site_type_symbol
_atom_type_description
_atom_site_fract_x
_atom_site_fract_y
_atom_site_fract_z
_atom_type_partial_charge
C1    C     C_R   0.492278 0.199906 0.453732 0.877828
C2    C     C_R   0.085653 0.656190 0.568414 0.066599
C3    C     C_R   0.130797 0.508396 0.505314 -0.110441
C4    C     C_R   0.050741 0.370994 0.440094 -0.212208
C5    C     C_R   0.922820 0.374923 0.438613 0.165649
C6    C     C_R   0.873442 0.521461 0.499908 -0.101223
C7    C     C_2   0.480988 0.031574 0.429205 -0.369991
C8    C     C_2   0.499653 0.967827 0.573103 -0.380110
C9    C     C_R   0.262873 0.495792 0.500617 0.778968
C10   C     C_R   0.498680 0.799495 0.546621 0.856935
C11   C     C_R   0.737962 0.513589 0.500959 0.811897
C12   C     C_R   0.170134 0.793926 0.633108 -0.153859
C13   C     C_R   0.129156 0.941842 0.688226 -0.201587
C14   C     C_R   0.003122 0.956879 0.680373 -0.110494
C15   C     C_R   0.915230 0.823416 0.619281 0.163164
C16   C     C_R   0.954978 0.666976 0.563433 0.029000
Cu1   Cu    Cu3+1 0.513920 0.517380 0.684380 0.937934
Cu2   Cu    Cu3+1 0.486080 0.482620 0.315620 0.943615
H1    H     H_    0.089106 0.259261 0.392186 0.139808
H2    H     H_    0.269378 0.789344 0.641565 0.147559
H3    H     H_    0.195727 0.045784 0.736134 0.144352
N1    N     N_2   0.465100 0.456430 0.038520 -0.178962
N2    N     N_2   0.534900 0.543570 0.961480 -0.085893
O1    O     O_R   0.509050 0.286130 0.619770 -0.586797
O2    O     O_R   0.485540 0.256780 0.308360 -0.589106
O3    O     O_R   0.331410 0.514680 0.655740 -0.587662
O4    O     O_R   0.307900 0.485330 0.344330 -0.570973
O5    O     O_R   0.514460 0.743220 0.691640 -0.604349
O6    O     O_R   0.490950 0.713870 0.380230 -0.587986
O7    O     O_R   0.692100 0.514670 0.655670 -0.576481
O8    O     O_R   0.668590 0.485320 0.344260 -0.587203
C17   C     C_3   0.600105 0.691599 0.063439 -0.321410
H4    H     H_    0.667421 0.733521 0.977470 0.148554
H5    H     H_    0.533778 0.782024 0.090366 0.161975
H6    H     H_    0.656935 0.679869 0.186086 0.183968
H7    H     H_    0.974151 0.075003 0.722908 0.147775
C18   C     C_3   0.782607 0.857784 0.614994 -0.889417
H8    H     H_    0.736077 0.811489 0.474799 0.219011
H9    H     H_    0.739437 0.806424 0.718974 0.250875
H10   H     H_    0.771858 0.986798 0.651100 0.223203
C19   C     C_3   0.840231 0.220110 0.373414 -0.845591
H11   H     H_    0.781853 0.200737 0.482407 0.223819
H12   H     H_    0.778969 0.223198 0.248363 0.247189
H13   H     H_    0.895173 0.116611 0.339343 0.228343
H14   H     H_    0.456661 0.960123 0.291609 0.168365
H15   H     H_    0.520516 0.039934 0.711970 0.179483
H16   H     H_    0.414192 0.361235 0.949057 0.205877

loop_
_geom_bond_atom_site_label_1
_geom_bond_atom_site_label_2
_ccdc_geom_bond_type
C18   H8    S    
C3    C9    S    
C2    C16   A    
C19   H11   S    
C14   C15   A    
C2    C12   A    
N2    C17   S    
C12   H2    S    
C2    C3    A    
C13   H3    S    
C7    C8    D    
C18   H9    S    
Cu2   O6    S    
Cu2   N1    S    
C13   C14   A    
C17   H4    S    
C1    O2    A    
Cu1   O7    S    
C19   H12   S    
C10   O6    A    
Cu1   N2    S    
Cu2   O2    S    
Cu1   O3    S    
C7    H14   S    
C8    C10   S    
C9    O3    A    
N1    H16   S    
C18   H10   S    
C14   H7    S    
C5    C6    A    
C19   H13   S    
C8    H15   S    
Cu1   O1    S    
C11   O8    A    
C3    C4    A    
C17   H6    S    
C12   C13   A    
C9    O4    A    
C1    O1    A    
Cu1   Cu2   S    
C10   O5    A    
C6    C11   S    
C5    C19   S    
N1    N2    D    
C15   C18   S    
Cu2   O8    S    
Cu1   O5    S    
C1    C7    S    
C4    H1    S    
C6    C16   A    
Cu2   O4    S    
C15   C16   A    
C11   O7    A    
C4    C5    A    
C17   H5    S    
