data_str_m4_o4_o24_f0_acs.sym.138
_audit_creation_date              2012-12-11T15:50:28-0500
_audit_creation_method            fapswitch 2.2
_symmetry_space_group_name_H-M    P1
_symmetry_Int_Tables_number       1
_space_group_crystal_system       triclinic
_cell_length_a                    19.040433
_cell_length_b                    11.15626
_cell_length_c                    18.658204
_cell_angle_alpha                 90.028255
_cell_angle_beta                  90.379871
_cell_angle_gamma                 90.294335
_cell_volume                      3963.2361319

loop_
_atom_site_label
_atom_site_type_symbol
_atom_type_description
_atom_site_fract_x
_atom_site_fract_y
_atom_site_fract_z
_atom_type_partial_charge
C1    C     C_R   0.289877 0.997438 0.860903 0.553840
C2    C     C_R   0.714244 0.004686 0.138123 0.536736
C3    C     C_R   0.784836 0.506157 0.861972 0.540057
C4    C     C_R   0.210830 0.499377 0.138754 0.548547
C5    C     C_3   0.519370 0.730639 0.974468 0.026074
C6    C     C_3   0.463192 0.739984 0.032581 0.041769
C7    C     C_3   0.020419 0.235721 0.975272 0.017771
C8    C     C_3   0.962773 0.250749 0.031598 0.030020
C9    C     C_R   0.227706 0.528488 0.064801 0.024608
C10   C     C_R   0.759188 0.534078 0.934207 0.013877
C11   C     C_R   0.738238 0.033015 0.065365 0.013049
C12   C     C_R   0.280309 0.012677 0.938409 -0.004917
C13   C     C_R   0.222124 0.443089 0.010009 -0.026677
C14   C     C_R   0.737520 0.443004 0.982112 -0.022650
C15   C     C_R   0.759612 0.943554 0.016596 -0.012022
C16   C     C_R   0.225087 0.962909 0.978010 -0.006289
C17   C     C_R   0.231413 0.473686 0.938112 -0.008800
C18   C     C_R   0.730762 0.469845 0.056281 -0.013484
C19   C     C_R   0.760092 0.967170 0.942028 -0.015096
C20   C     C_R   0.215432 0.987974 0.048956 0.002969
C21   C     C_R   0.260400 0.673033 0.975824 -0.163177
C22   C     C_R   0.731923 0.672968 0.026011 -0.154597
C23   C     C_R   0.761374 0.172675 0.972432 -0.154044
C24   C     C_R   0.324109 0.094309 0.052087 -0.177420
C25   C     C_R   0.243461 0.646219 0.046151 -0.155434
C26   C     C_R   0.740502 0.649098 0.953406 -0.160912
C27   C     C_R   0.745123 0.150412 0.043465 -0.165000
C28   C     C_R   0.332277 0.074090 0.978407 -0.172976
C29   C     C_3   0.263442 0.331965 0.001123 -0.268345
C30   C     C_3   0.664557 0.389469 0.980522 -0.263707
C31   C     C_3   0.831924 0.887552 0.011280 -0.257108
C32   C     C_3   0.156964 0.896726 0.971702 -0.273030
C33   C     C_3   0.272716 0.363802 0.923196 -0.268067
C34   C     C_3   0.657720 0.418744 0.058729 -0.272453
C35   C     C_3   0.827483 0.902554 0.931308 -0.279996
C36   C     C_3   0.145625 0.927210 0.051757 -0.278566
C37   C     C_R   0.251000 0.589852 0.921224 0.029388
C38   C     C_R   0.745244 0.587225 0.077712 0.022897
C39   C     C_R   0.751204 0.085988 0.920439 0.026169
C40   C     C_R   0.260950 0.063153 0.087003 0.006886
C41   C     C_R   0.516505 0.829569 0.429812 0.020746
C42   C     C_R   0.505827 0.829403 0.579336 0.018580
C43   C     C_R   0.019599 0.329511 0.430964 0.018440
C44   C     C_R   0.008042 0.329925 0.580428 0.017168
C45   C     C_R   0.467070 0.821770 0.856693 0.538386
C46   C     C_R   0.530665 0.822155 0.144982 0.536747
C47   C     C_R   0.969058 0.322969 0.855939 0.535746
C48   C     C_R   0.030720 0.323043 0.145011 0.535201
C49   C     C_R   0.522419 0.723708 0.468660 0.044015
C50   C     C_R   0.517554 0.722767 0.541657 0.028169
C51   C     C_R   0.027274 0.224307 0.470208 0.046526
C52   C     C_R   0.022353 0.223648 0.543276 0.030386
C53   C     C_R   0.512323 0.938750 0.542511 -0.168822
C54   C     C_R   0.516610 0.938846 0.467554 -0.164241
C55   C     C_R   0.014248 0.439260 0.543436 -0.162487
C56   C     C_R   0.019118 0.439031 0.468467 -0.159337
C57   C     C_3   0.483128 0.608900 0.459212 -0.280541
C58   C     C_3   0.477242 0.606560 0.539766 -0.269048
C59   C     C_3   0.990695 0.106879 0.461139 -0.276757
C60   C     C_3   0.985550 0.104079 0.541800 -0.268773
C61   C     C_R   0.236735 0.559253 0.431297 0.018175
C62   C     C_R   0.748111 0.606173 0.582814 0.019119
C63   C     C_R   0.753625 0.094564 0.419784 0.016587
C64   C     C_R   0.248117 0.102856 0.581838 0.018825
C65   C     C_R   0.179300 0.601260 0.469129 0.044842
C66   C     C_R   0.795932 0.678926 0.545892 0.023007
C67   C     C_R   0.717598 0.187768 0.452745 0.015689
C68   C     C_R   0.294880 0.178033 0.545349 0.027787
C69   C     C_R   0.181005 0.608753 0.541918 0.032150
C70   C     C_R   0.792277 0.685684 0.473094 0.040445
C71   C     C_R   0.718205 0.195570 0.525728 0.049112
C72   C     C_R   0.292025 0.183846 0.472477 0.047780
C73   C     C_R   0.293063 0.507897 0.543809 -0.165828
C74   C     C_R   0.684199 0.573147 0.472347 -0.154365
C75   C     C_R   0.800588 0.033204 0.535073 -0.174227
C76   C     C_R   0.187332 0.062135 0.470325 -0.161211
C77   C     C_R   0.291365 0.502571 0.469164 -0.160846
C78   C     C_R   0.687237 0.566525 0.547053 -0.156791
C79   C     C_R   0.801239 0.025820 0.460749 -0.165905
C80   C     C_R   0.189329 0.056614 0.544988 -0.162409
C81   C     C_3   0.139334 0.714481 0.459112 -0.279173
C82   C     C_3   0.875027 0.680159 0.543736 -0.270182
C83   C     C_3   0.642471 0.227987 0.448633 -0.271782
C84   C     C_3   0.373973 0.183342 0.544194 -0.269622
C85   C     C_3   0.140708 0.724811 0.539607 -0.268624
C86   C     C_3   0.869865 0.687703 0.463257 -0.277184
C87   C     C_3   0.643316 0.233462 0.529468 -0.265357
C88   C     C_3   0.369685 0.189368 0.463650 -0.276382
C89   C     C_R   0.259410 0.632381 0.849030 0.532460
C90   C     C_R   0.740282 0.630601 0.151001 0.530641
C91   C     C_R   0.758967 0.129847 0.848024 0.531102
C92   C     C_R   0.241457 0.130729 0.151316 0.534814
C93   C     C_R   0.241729 0.574454 0.579501 0.019854
C94   C     C_R   0.741065 0.622955 0.434738 0.023543
C95   C     C_R   0.754842 0.113255 0.568024 0.027948
C96   C     C_R   0.242676 0.117823 0.433537 0.020840
C97   C     C_R   0.270857 0.047939 0.647594 0.557092
C98   C     C_R   0.729186 0.046451 0.352853 0.558624
C99   C     C_R   0.770791 0.548552 0.647858 0.557011
C100  C     C_R   0.226647 0.540489 0.355983 0.549489
C101  C     C_R   0.470825 0.823153 0.647957 0.547953
C102  C     C_R   0.532696 0.823105 0.354322 0.541717
C103  C     C_R   0.971239 0.323206 0.648191 0.546545
C104  C     C_R   0.033719 0.322995 0.354925 0.541972
C105  C     C_R   0.258691 0.634636 0.645481 0.548270
C106  C     C_R   0.738021 0.643570 0.358834 0.548197
C107  C     C_R   0.760507 0.139972 0.642789 0.545913
C108  C     C_R   0.238606 0.141648 0.358117 0.545930
C109  C     C_3   0.473103 0.936146 0.030490 -0.135808
C110  C     C_3   0.529249 0.926657 0.971101 -0.147776
C111  C     C_3   0.978688 0.445509 0.028840 -0.128956
C112  C     C_3   0.036339 0.429862 0.970943 -0.133553
C113  C     C_3   0.427340 0.841652 0.990556 -0.113929
C114  C     C_3   0.564911 0.825078 0.013107 -0.126332
C115  C     C_3   0.931050 0.355030 0.988118 -0.113975
C116  C     C_3   0.067305 0.325181 0.015003 -0.120889
C117  C     C_3   0.484768 0.831273 0.932678 0.046734
C118  C     C_3   0.508135 0.833028 0.070964 0.064486
C119  C     C_3   0.989514 0.337578 0.931721 0.044568
C120  C     C_3   0.009100 0.338584 0.070882 0.064989
Cr1   Cr    Cr6+3 0.229640 0.835880 0.747370 0.999126
Cr2   Cr    Cr6+3 0.770360 0.835880 0.252630 1.003372
Cr3   Cr    Cr6+3 0.729640 0.335880 0.747370 1.004949
Cr4   Cr    Cr6+3 0.270360 0.335880 0.252630 0.997618
Cr5   Cr    Cr6+3 0.387390 0.989720 0.750850 0.998768
Cr6   Cr    Cr6+3 0.612610 0.989720 0.249150 1.000571
Cr7   Cr    Cr6+3 0.887390 0.489720 0.750850 1.005552
Cr8   Cr    Cr6+3 0.112610 0.489720 0.249150 1.005353
Cr9   Cr    Cr6+3 0.385770 0.677220 0.749340 0.992838
Cr10  Cr    Cr6+3 0.614230 0.677220 0.250660 0.995483
Cr11  Cr    Cr6+3 0.885770 0.177220 0.749340 0.992329
Cr12  Cr    Cr6+3 0.114230 0.177220 0.250660 0.998494
H1    H     H_    0.371266 0.849371 0.980193 0.104816
H2    H     H_    0.621024 0.829598 0.023415 0.096361
H3    H     H_    0.875282 0.371517 0.975713 0.096186
H4    H     H_    0.121174 0.304387 0.031908 0.105877
H5    H     H_    0.508262 0.023073 0.570691 0.115818
H6    H     H_    0.517390 0.023278 0.439281 0.119251
H7    H     H_    0.009373 0.523707 0.571360 0.120193
H8    H     H_    0.019857 0.523349 0.440009 0.127547
H9    H     H_    0.025013 0.035917 0.439215 0.135392
H10   H     H_    0.930557 0.108612 0.560186 0.174334
H11   H     H_    0.516192 0.535736 0.437670 0.133292
H12   H     H_    0.422252 0.616908 0.557579 0.170629
H13   H     H_    0.431895 0.621227 0.431281 0.134733
H14   H     H_    0.506672 0.531685 0.565052 0.125009
H15   H     H_    0.939068 0.115992 0.433598 0.140088
H16   H     H_    0.017482 0.031999 0.566784 0.125105
H17   H     H_    0.337842 0.471832 0.572363 0.121644
H18   H     H_    0.639400 0.535673 0.444284 0.127079
H19   H     H_    0.833842 0.974484 0.566489 0.121753
H20   H     H_    0.144743 0.019028 0.441563 0.126153
H21   H     H_    0.333585 0.458673 0.441253 0.129625
H22   H     H_    0.645976 0.520532 0.575706 0.119080
H23   H     H_    0.832947 0.957045 0.436439 0.138158
H24   H     H_    0.149470 0.005390 0.572658 0.120955
H25   H     H_    0.085817 0.699610 0.436814 0.136373
H26   H     H_    0.898768 0.594537 0.561129 0.169248
H27   H     H_    0.604996 0.159584 0.428562 0.163243
H28   H     H_    0.399148 0.099396 0.562314 0.169094
H29   H     H_    0.170583 0.785249 0.431757 0.134365
H30   H     H_    0.897969 0.762055 0.568754 0.125099
H31   H     H_    0.637317 0.317386 0.423004 0.127012
H32   H     H_    0.395192 0.266682 0.569020 0.125842
H33   H     H_    0.171968 0.803606 0.557303 0.169347
H34   H     H_    0.889613 0.773990 0.441525 0.133917
H35   H     H_    0.637225 0.325139 0.550848 0.141279
H36   H     H_    0.388411 0.276021 0.441571 0.136271
H37   H     H_    0.087832 0.716529 0.564092 0.125398
H38   H     H_    0.889450 0.606295 0.435520 0.136898
H39   H     H_    0.609230 0.164677 0.554951 0.134798
H40   H     H_    0.390830 0.108455 0.436638 0.134698
H41   H     H_    0.457578 0.020307 0.057123 0.116339
H42   H     H_    0.557085 0.002353 0.944887 0.121109
H43   H     H_    0.960692 0.531040 0.052754 0.121233
H44   H     H_    0.067397 0.502302 0.945249 0.126971
H45   H     H_    0.276836 0.761220 0.962112 0.116174
H46   H     H_    0.715653 0.756928 0.044739 0.121501
H47   H     H_    0.782895 0.256043 0.956106 0.124909
H48   H     H_    0.363820 0.147976 0.078974 0.133828
H49   H     H_    0.245059 0.716233 0.086157 0.134013
H50   H     H_    0.730036 0.716277 0.913287 0.127023
H51   H     H_    0.744097 0.221972 0.082028 0.135987
H52   H     H_    0.379017 0.108963 0.952841 0.147054
H53   H     H_    0.837448 0.793339 0.027644 0.158613
H54   H     H_    0.158845 0.799832 0.962126 0.159785
H55   H     H_    0.230065 0.251557 0.007784 0.143756
H56   H     H_    0.658256 0.293148 0.970257 0.156221
H57   H     H_    0.313278 0.334865 0.032461 0.152039
H58   H     H_    0.630792 0.435642 0.942037 0.146985
H59   H     H_    0.874351 0.939142 0.036888 0.122574
H60   H     H_    0.123820 0.937173 0.930602 0.152191
H61   H     H_    0.328233 0.383160 0.908772 0.140784
H62   H     H_    0.616850 0.486169 0.070822 0.153808
H63   H     H_    0.867268 0.959103 0.907016 0.145926
H64   H     H_    0.102081 0.989387 0.063696 0.150336
H65   H     H_    0.244555 0.301747 0.886111 0.155337
H66   H     H_    0.653282 0.339054 0.093856 0.140931
H67   H     H_    0.822772 0.818268 0.900766 0.151170
H68   H     H_    0.146570 0.847307 0.087175 0.145711
O1    O     O_R   0.214300 0.709080 0.827500 -0.528550
O2    O     O_R   0.785700 0.709080 0.172500 -0.523330
O3    O     O_R   0.714300 0.209080 0.827500 -0.524821
O4    O     O_R   0.285700 0.209080 0.172500 -0.534301
O5    O     O_R   0.445900 0.919370 0.676500 -0.508669
O6    O     O_R   0.554100 0.919370 0.323500 -0.508682
O7    O     O_R   0.945900 0.419370 0.676500 -0.509577
O8    O     O_R   0.054100 0.419370 0.323500 -0.508149
O9    O     O_R   0.456660 0.717710 0.669820 -0.522164
O10   O     O_R   0.543340 0.717710 0.330180 -0.522232
O11   O     O_R   0.956660 0.217710 0.669820 -0.523235
O12   O     O_R   0.043340 0.217710 0.330180 -0.521221
O13   O     O_R   0.320590 0.625770 0.672930 -0.511444
O14   O     O_R   0.679410 0.625770 0.327070 -0.509416
O15   O     O_R   0.820590 0.125770 0.672930 -0.511246
O16   O     O_R   0.179410 0.125770 0.327070 -0.508268
O17   O     O_3   0.334270 0.834280 0.749190 -0.270222
O18   O     O_3   0.665730 0.834280 0.250810 -0.265722
O19   O     O_3   0.834270 0.334280 0.749190 -0.264304
O20   O     O_3   0.165730 0.334280 0.250810 -0.269687
O21   O     O_R   0.236190 0.958390 0.823150 -0.502064
O22   O     O_R   0.763810 0.958390 0.176850 -0.509332
O23   O     O_R   0.736190 0.458390 0.823150 -0.503415
O24   O     O_R   0.263810 0.458390 0.176850 -0.515998
O25   O     O_R   0.332090 0.075280 0.831290 -0.525117
O26   O     O_R   0.667910 0.075280 0.168710 -0.520041
O27   O     O_R   0.832090 0.575280 0.831290 -0.518424
O28   O     O_R   0.167910 0.575280 0.168710 -0.520928
O29   O     O_R   0.446280 0.918040 0.826620 -0.520999
O30   O     O_R   0.553720 0.918040 0.173380 -0.516038
O31   O     O_R   0.946280 0.418040 0.826620 -0.511876
O32   O     O_R   0.053720 0.418040 0.173380 -0.518115
O33   O     O_R   0.457080 0.716270 0.831760 -0.523237
O34   O     O_R   0.542920 0.716270 0.168240 -0.531224
O35   O     O_R   0.957080 0.216270 0.831760 -0.526185
O36   O     O_R   0.042920 0.216270 0.168240 -0.527987
O37   O     O_R   0.320980 0.624440 0.823040 -0.511323
O38   O     O_R   0.679020 0.624440 0.176960 -0.504656
O39   O     O_R   0.820980 0.124440 0.823040 -0.512351
O40   O     O_R   0.179020 0.124440 0.176960 -0.500645
O41   O     O_R   0.213880 0.710510 0.665560 -0.526759
O42   O     O_R   0.786120 0.710510 0.334440 -0.521508
O43   O     O_R   0.713880 0.210510 0.665560 -0.521524
O44   O     O_R   0.286120 0.210510 0.334440 -0.521249
O45   O     O_R   0.235800 0.959720 0.673040 -0.509225
O46   O     O_R   0.764200 0.959720 0.326960 -0.510460
O47   O     O_R   0.735800 0.459720 0.673040 -0.504739
O48   O     O_R   0.264200 0.459720 0.326960 -0.508336
O49   O     O_R   0.331670 0.076720 0.669350 -0.523181
O50   O     O_R   0.668330 0.076720 0.330650 -0.522842
O51   O     O_R   0.831670 0.576720 0.669350 -0.524567
O52   O     O_R   0.168330 0.576720 0.330650 -0.516212
C121  C     C_3   0.551425 0.620493 0.941678 -0.261420
C122  C     C_3   0.499409 0.515734 0.934425 -0.421389
H69   H     H_    0.495856 0.466140 0.985797 0.120267
H70   H     H_    0.446187 0.546699 0.918840 0.189071
H71   H     H_    0.517681 0.452533 0.892635 0.132846
H72   H     H_    0.574533 0.642881 0.888820 0.161511
H73   H     H_    0.594697 0.598646 0.978116 0.146058
C123  C     C_3   0.423781 0.639743 0.071777 -0.265594
C124  C     C_3   0.382391 0.688613 0.135524 -0.424522
H74   H     H_    0.416270 0.705882 0.182748 0.169597
H75   H     H_    0.355188 0.773154 0.121212 0.141333
H76   H     H_    0.343698 0.621415 0.153011 0.175705
H77   H     H_    0.387518 0.594750 0.033531 0.149189
H78   H     H_    0.461720 0.571969 0.091520 0.159149
C125  C     C_3   0.053922 0.128771 0.940737 -0.269541
C126  C     C_3   0.001778 0.025881 0.935519 -0.427587
H79   H     H_    0.000520 0.973410 0.985949 0.127817
H80   H     H_    0.950107 0.065664 0.926072 0.186533
H81   H     H_    0.013915 0.966092 0.889727 0.137833
H82   H     H_    0.073615 0.152670 0.886670 0.163427
H83   H     H_    0.100458 0.108548 0.973114 0.141268
C127  C     C_3   0.919400 0.157244 0.070532 -0.275076
C128  C     C_3   0.879563 0.208713 0.134737 -0.423323
H84   H     H_    0.914149 0.225773 0.181385 0.169118
H85   H     H_    0.852844 0.293521 0.120009 0.139906
H86   H     H_    0.840521 0.142687 0.153616 0.169024
H87   H     H_    0.881707 0.124888 0.030418 0.155426
H88   H     H_    0.953506 0.082706 0.088736 0.157354

loop_
_geom_bond_atom_site_label_1
_geom_bond_atom_site_label_2
_ccdc_geom_bond_type
Cr4   O20   S    
C57   H13   S    
C73   C93   A    
C75   C95   A    
C48   C120  S    
C53   H5    S    
C16   C20   A    
C63   C98   S    
C69   C93   A    
C97   O45   A    
C5    C6    S    
C20   C40   A    
C109  H41   S    
C71   C95   A    
C22   C38   A    
C29   C33   S    
C55   H7    S    
C1    O21   A    
C127  C128  S    
C9    C13   A    
C122  H70   S    
C11   C15   A    
C121  H72   S    
C87   H35   S    
C12   C16   A    
C88   H36   S    
Cr12  O16   S    
Cr4   O44   S    
C23   H47   S    
Cr2   O46   S    
C34   H62   S    
C21   H45   S    
C96   C108  S    
C59   C60   S    
Cr8   O32   S    
C113  H1    S    
C107  O43   A    
Cr6   O26   S    
C41   C49   A    
C109  C118  S    
C47   O35   A    
C90   O38   A    
Cr11  O15   S    
C51   C52   A    
C7    C119  S    
C99   O51   A    
C62   C66   A    
C97   O49   A    
Cr11  O35   S    
Cr3   O23   S    
C85   H37   S    
C66   C82   S    
C125  H82   S    
C11   C27   A    
C68   C72   A    
C87   H39   S    
Cr12  O36   S    
C26   H50   S    
C64   C97   S    
C126  H80   S    
C29   H57   S    
C123  H78   S    
C2    O26   A    
C125  H83   S    
Cr9   O37   S    
C84   C88   S    
C9    C25   A    
C32   H54   S    
C38   C90   S    
Cr3   O3    S    
C85   H33   S    
Cr5   O49   S    
C18   C38   A    
Cr1   O1    S    
C19   C35   S    
C76   C96   A    
C44   C55   A    
C66   C70   A    
C56   H8    S    
C31   C35   S    
Cr5   O5    S    
Cr10  O14   S    
C27   H51   S    
C79   H23   S    
C62   C99   S    
C72   C96   A    
C61   C65   A    
C107  O15   A    
Cr2   O22   S    
C5    C117  S    
C73   C77   A    
Cr8   O8    S    
C75   C79   A    
Cr6   O18   S    
C90   O2    A    
C59   H15   S    
C67   C83   S    
C111  C112  S    
Cr3   O43   S    
C35   H67   S    
C7    C8    S    
C53   C54   A    
Cr1   O41   S    
C32   H60   S    
C21   C25   A    
C64   C68   A    
C103  O7    A    
Cr5   O29   S    
C42   C53   A    
C124  H74   S    
C82   H26   S    
C49   C57   S    
C41   C102  S    
C5    C121  S    
Cr10  O18   S    
C43   C104  S    
Cr7   O7    S    
C52   C60   S    
C77   H21   S    
Cr4   O24   S    
C61   C77   A    
C24   H48   S    
C76   C80   A    
Cr8   O20   S    
C44   C52   A    
C104  O8    A    
C1    C12   S    
C2    C11   S    
C44   C103  S    
C110  H42   S    
C106  O14   A    
C30   C34   S    
C127  H87   S    
C128  H86   S    
C10   C14   A    
C103  O11   A    
C82   H30   S    
C122  H71   S    
C101  O9    A    
C116  C120  S    
Cr12  O20   S    
C7    C116  S    
Cr4   O48   S    
C36   H64   S    
C34   H66   S    
Cr8   O28   S    
C31   H53   S    
C114  H2    S    
C114  C118  S    
C7    C125  S    
C102  O6    A    
C19   C39   A    
C42   C50   A    
C113  C117  S    
C112  H44   S    
C115  C119  S    
C46   O34   A    
Cr11  O11   S    
C61   C100  S    
C104  O12   A    
C99   O47   A    
C42   C101  S    
C112  C116  S    
C69   C85   S    
C45   C117  S    
Cr3   O19   S    
C92   O40   A    
C3    O23   A    
C86   H38   S    
Cr1   O17   S    
C62   C78   A    
C24   C28   A    
C123  C124  S    
C124  H76   S    
C125  C126  S    
C32   C36   S    
C15   C31   S    
C16   C32   S    
C60   H16   S    
C13   C17   A    
C128  H85   S    
C28   H52   S    
C57   C58   S    
C115  H3    S    
C30   H58   S    
Cr9   O13   S    
C58   H12   S    
C59   H9    S    
C49   C50   A    
C4    C9    S    
C105  O41   A    
C81   C85   S    
C83   C87   S    
C55   C56   A    
C46   O30   A    
C74   C94   A    
C128  H84   S    
C86   H34   S    
C84   H28   S    
Cr7   O19   S    
C15   C19   A    
C12   C28   A    
C13   C29   S    
C70   C94   A    
C45   O33   A    
C98   O46   A    
C76   H20   S    
C31   H59   S    
C2    O22   A    
C46   C118  S    
C6    C123  S    
C39   C91   S    
Cr9   O17   S    
C60   H10   S    
C94   C106  S    
C92   O4    A    
C35   H63   S    
Cr1   O45   S    
C33   H61   S    
Cr7   O27   S    
C64   C80   A    
C17   C33   S    
C106  O42   A    
Cr5   O25   S    
C110  C117  S    
C81   H25   S    
C68   C84   S    
C89   O37   A    
C98   O50   A    
C78   H22   S    
C82   C86   S    
Cr10  O34   S    
C29   H55   S    
C50   C58   S    
C122  H69   S    
C100  O48   A    
C121  H73   S    
C65   C81   S    
C108  O16   A    
C95   C107  S    
C71   C87   S    
C127  H88   S    
C3    O27   A    
C1    O25   A    
C83   H31   S    
C73   H17   S    
C81   H29   S    
C36   H68   S    
C112  C119  S    
C116  H4    S    
C37   C89   S    
Cr6   O50   S    
Cr2   O2    S    
C109  C110  S    
C43   C51   A    
C121  C122  S    
Cr6   O6    S    
C65   C69   A    
C67   C71   A    
C4    O28   A    
Cr12  O40   S    
C20   C36   S    
C21   C37   A    
C126  H79   S    
C22   C26   A    
Cr1   O21   S    
C123  H77   S    
C91   O3    A    
C30   H56   S    
Cr5   O17   S    
C89   O1    A    
C88   H40   S    
C5    C114  S    
C14   C18   A    
Cr12  O12   S    
C22   H46   S    
Cr2   O42   S    
C63   C79   A    
Cr8   O52   S    
Cr4   O4    S    
C111  H43   S    
Cr6   O30   S    
C47   O31   A    
Cr11  O19   S    
C8    C115  S    
C93   C105  S    
Cr11  O39   S    
C23   C27   A    
C74   C78   A    
C84   H32   S    
C109  C113  S    
C10   C26   A    
C47   C119  S    
C45   O29   A    
C14   C30   S    
C72   C88   S    
C25   H49   S    
C80   H24   S    
C63   C67   A    
C105  O13   A    
C57   H11   S    
C75   H19   S    
C124  H75   S    
C102  O10   A    
C4    O24   A    
Cr9   O33   S    
C111  C120  S    
C6    C113  S    
C126  H81   S    
C33   H65   S    
C108  O44   A    
Cr7   O31   S    
C17   C37   A    
C40   C92   S    
C18   C34   S    
C48   O36   A    
C101  O5    A    
Cr10  O10   S    
C51   C59   S    
C70   C86   S    
C8    C120  S    
C110  C114  S    
Cr10  O38   S    
Cr2   O18   S    
C100  O52   A    
C58   H14   S    
C3    C10   S    
Cr3   O47   S    
C54   H6    S    
C23   C39   A    
C24   C40   A    
Cr7   O51   S    
C41   C54   A    
C48   O32   A    
C43   C56   A    
C83   H27   S    
C91   O39   A    
C74   H18   S    
C111  C115  S    
Cr9   O9    S    
C6    C118  S    
C8    C127  S    
