data_str_m3_o4_o16_f0_pcu.sym.78
_audit_creation_date              2012-12-10T20:30:15-0500
_audit_creation_method            fapswitch 2.2
_symmetry_space_group_name_H-M    P1
_symmetry_Int_Tables_number       1
_space_group_crystal_system       triclinic
_cell_length_a                    9.945605
_cell_length_b                    10.791129
_cell_length_c                    13.109544
_cell_angle_alpha                 90.260598
_cell_angle_beta                  70.667113
_cell_angle_gamma                 88.291882
_cell_volume                      1326.89009392

loop_
_atom_site_label
_atom_site_type_symbol
_atom_type_description
_atom_site_fract_x
_atom_site_fract_y
_atom_site_fract_z
_atom_type_partial_charge
C1    C     C_R   0.496721 0.740269 0.503662 0.856204
C2    C     C_R   0.433924 0.535866 0.982514 0.099483
C3    C     C_R   0.460308 0.568415 0.874148 0.058024
C4    C     C_R   0.541269 0.554344 0.028735 0.095584
C5    C     C_R   0.657638 0.628804 0.975885 0.147044
C6    C     C_R   0.672861 0.674857 0.873718 -0.256669
C7    C     C_R   0.576761 0.643118 0.822436 -0.189568
C8    C     C_R   0.534622 0.501286 0.126651 -0.305889
C9    C     C_R   0.743681 0.611691 0.128834 0.163514
C10   C     C_R   0.365123 0.531365 0.821714 -0.187414
C11   C     C_R   0.373521 0.944849 0.511231 0.093717
C12   C     C_R   0.419684 0.510566 0.703781 0.847887
C13   C     C_R   0.492533 0.873547 0.512153 -0.136817
C14   C     C_R   0.606567 0.930937 0.531436 -0.256097
C15   C     C_R   0.607931 0.058470 0.543589 0.161169
C16   C     C_R   0.494863 0.130012 0.528457 -0.169678
C17   C     C_R   0.373548 0.071992 0.525627 0.027418
C18   C     C_3   0.232892 0.075114 0.615361 -0.028895
C19   C     C_3   0.226882 0.939425 0.592001 -0.488254
C20   C     C_R   0.896909 0.576188 0.568433 0.245685
C21   C     C_R   0.954742 0.416625 0.440238 -0.151342
C22   C     C_R   0.099038 0.414609 0.438975 0.175475
C23   C     C_R   0.498093 0.261242 0.510323 0.876914
C24   C     C_R   0.038445 0.574491 0.569702 0.172972
C25   C     C_3   0.040778 0.710621 0.571187 -0.526440
C26   C     C_3   0.891638 0.713851 0.566330 -0.527045
C27   C     C_R   0.579573 0.506301 0.296115 0.882252
C28   C     C_R   0.755719 0.658464 0.026791 -0.246376
C29   C     C_R   0.627545 0.534495 0.180599 -0.100878
C30   C     C_R   0.222986 0.504927 0.885207 0.187388
C31   C     C_R   0.192935 0.482820 0.995381 -0.202048
C32   C     C_R   0.298229 0.493297 0.042580 -0.246884
H1    H     H_    0.150157 0.133285 0.596693 0.152290
H2    H     H_    0.221646 0.876576 0.660145 0.199159
H3    H     H_    0.145946 0.927063 0.552270 0.187506
H4    H     H_    0.919549 0.352125 0.392143 0.175248
H5    H     H_    0.045831 0.745509 0.649549 0.191445
H6    H     H_    0.120629 0.744008 0.495995 0.228817
H7    H     H_    0.812515 0.756507 0.639597 0.188476
H8    H     H_    0.759987 0.734123 0.833100 0.139880
H9    H     H_    0.887424 0.749015 0.487861 0.211423
H10   H     H_    0.839998 0.721365 0.988020 0.128319
H11   H     H_    0.454177 0.435151 0.164163 0.160790
H12   H     H_    0.266713 0.481149 0.128637 0.156578
H13   H     H_    0.085915 0.461464 0.045953 0.144900
H14   H     H_    0.589507 0.683058 0.744442 0.159497
H15   H     H_    0.693002 0.876421 0.541980 0.174999
N1    N     N_R   0.856940 0.500860 0.500710 -0.128723
N2    N     N_R   0.142580 0.500820 0.500710 -0.134901
O1    O     O_R   0.385310 0.683210 0.499990 -0.608455
O2    O     O_R   0.614650 0.683240 0.500000 -0.626426
O3    O     O_R   0.328390 0.499940 0.653610 -0.611085
O4    O     O_R   0.557730 0.499980 0.653620 -0.610535
O5    O     O_R   0.385350 0.316760 0.500000 -0.644784
O6    O     O_R   0.614690 0.316790 0.500010 -0.610190
O7    O     O_R   0.442270 0.500020 0.346380 -0.626655
O8    O     O_R   0.671610 0.500060 0.346390 -0.610583
Zn1   Zn    Zn3+2 0.346870 0.499980 0.499990 0.919067
Zn2   Zn    Zn3+2 0.653130 0.500020 0.500010 0.926617
C33   C     C_3   0.852429 0.652419 0.179146 -0.418764
C34   C     C_3   0.801881 0.771454 0.245697 -0.790938
H16   H     H_    0.691960 0.762727 0.302200 0.260714
H17   H     H_    0.873797 0.791369 0.292510 0.238660
H18   H     H_    0.802732 0.850416 0.191460 0.242104
H19   H     H_    0.879982 0.578363 0.227632 0.225982
H20   H     H_    0.954977 0.670850 0.114679 0.191783
C35   C     C_3   0.723838 0.109012 0.581930 -0.377351
C36   C     C_3   0.867140 0.103475 0.491352 -0.861683
H21   H     H_    0.906393 0.005824 0.472323 0.247433
H22   H     H_    0.946358 0.154145 0.516868 0.241146
H23   H     H_    0.855940 0.145896 0.417598 0.264149
H24   H     H_    0.698631 0.204017 0.616526 0.227625
H25   H     H_    0.732935 0.051905 0.649926 0.185389
C37   C     C_3   0.243133 0.100816 0.728491 -0.339422
C38   C     C_3   0.100770 0.081293 0.817324 -0.897424
H26   H     H_    0.013687 0.135244 0.800694 0.261848
H27   H     H_    0.074687 0.981701 0.822727 0.255535
H28   H     H_    0.107426 0.112117 0.896383 0.252755
H29   H     H_    0.326235 0.039203 0.743406 0.214625
H30   H     H_    0.275248 0.197726 0.732868 0.200498
C39   C     C_3   0.198163 0.310015 0.375402 -0.340374
C40   C     C_3   0.166074 0.261278 0.276018 -0.998557
H31   H     H_    0.131958 0.337576 0.232970 0.262611
H32   H     H_    0.262876 0.213957 0.219233 0.266560
H33   H     H_    0.081384 0.192337 0.299876 0.266343
H34   H     H_    0.308247 0.338667 0.344695 0.264391
H35   H     H_    0.194056 0.231336 0.430135 0.200639
C41   C     C_3   0.097078 0.524377 0.845604 -0.391243
C42   C     C_3   0.041607 0.403801 0.816978 -0.840104
H36   H     H_    0.119375 0.360738 0.743441 0.277587
H37   H     H_    0.019619 0.339000 0.885644 0.257035
H38   H     H_    0.940713 0.423367 0.800185 0.242994
H39   H     H_    0.009671 0.570769 0.910864 0.190822
H40   H     H_    0.119831 0.589976 0.777608 0.213520

loop_
_geom_bond_atom_site_label_1
_geom_bond_atom_site_label_2
_ccdc_geom_bond_type
O6    Zn2   S    
C27   C29   S    
C8    H11   S    
C4    C8    A    
C39   C40   S    
O4    Zn2   S    
C21   H4    S    
C11   C19   S    
N1    Zn2   S    
C8    C29   A    
C18   C19   S    
C3    C7    A    
C30   C31   A    
C26   H7    S    
O8    Zn2   S    
C15   C16   A    
C2    C32   A    
C35   H24   S    
C34   H17   S    
C25   H5    S    
C14   H15   S    
C20   C24   A    
C16   C17   A    
C35   H25   S    
C42   H37   S    
C1    O1    A    
C39   H34   S    
C9    C29   A    
C21   N1    A    
C33   H20   S    
C18   C37   S    
C37   H30   S    
C21   C22   A    
C12   O3    A    
O3    Zn1   S    
C41   H40   S    
C37   C38   S    
C35   C36   S    
O1    Zn1   S    
C22   C39   S    
C24   C25   S    
C27   O8    A    
C27   O7    A    
C36   H21   S    
C25   C26   S    
N2    Zn1   S    
C33   C34   S    
C34   H18   S    
C2    C4    A    
C38   H26   S    
C7    H14   S    
C25   H6    S    
C5    C28   A    
C38   H27   S    
C10   C30   A    
C31   C32   A    
C15   C35   S    
C17   C18   S    
C32   H12   S    
C39   H35   S    
C42   H38   S    
C1    O2    A    
C20   N1    A    
C10   C12   S    
C22   N2    A    
C33   H19   S    
C16   C23   S    
C40   H32   S    
C37   H29   S    
C6    H8    S    
C1    C13   S    
C18   H1    S    
C30   C41   S    
C23   O5    A    
O5    Zn1   S    
C24   N2    A    
C41   H39   S    
C11   C17   A    
C12   O4    A    
C4    C5    A    
C19   H2    S    
C23   O6    A    
C6    C7    A    
C40   H33   S    
C9    C33   S    
C2    C3    A    
C3    C10   A    
C19   H3    S    
C11   C13   A    
C5    C6    A    
C20   C26   S    
C36   H23   S    
C28   H10   S    
O7    Zn1   S    
C34   H16   S    
C38   H28   S    
O2    Zn2   S    
C41   C42   S    
C26   H9    S    
C36   H22   S    
C40   H31   S    
C31   H13   S    
C14   C15   A    
C42   H36   S    
C13   C14   A    
C9    C28   A    
