data_str_m12_o4_o9_f0_bcu.sym.44
_audit_creation_date              2012-12-11T17:10:34-0500
_audit_creation_method            fapswitch 2.2
_symmetry_space_group_name_H-M    P1
_symmetry_Int_Tables_number       1
_space_group_crystal_system       triclinic
_cell_length_a                    14.797402
_cell_length_b                    14.872612
_cell_length_c                    14.876818
_cell_angle_alpha                 109.582944
_cell_angle_beta                  109.789161
_cell_angle_gamma                 109.097823
_cell_volume                      2518.52610349

loop_
_atom_site_label
_atom_site_type_symbol
_atom_type_description
_atom_site_fract_x
_atom_site_fract_y
_atom_site_fract_z
_atom_type_partial_charge
Br1   Br    Br    0.460281 0.961532 0.165849 -0.625456
C1    C     C_R   0.184736 0.277539 0.252175 -0.126615
C2    C     C_R   0.404008 0.495066 0.194623 -0.137130
C3    C     C_R   0.563796 0.815529 0.591467 -0.130606
C4    C     C_R   0.525365 0.432390 0.746482 -0.146753
C5    C     C_R   0.723249 0.476761 0.408728 -0.105410
C6    C     C_R   0.547851 0.825355 0.498136 0.070765
C7    C     C_R   0.827254 0.555548 0.501558 0.049287
C8    C     C_R   0.433482 0.432143 0.131046 0.082072
C9    C     C_R   0.802686 0.802402 0.868442 0.060643
C10   C     C_R   0.104650 0.603900 0.187957 -0.123528
C11   C     C_R   0.105793 0.626630 0.287596 -0.148627
C12   C     C_R   0.451167 0.449600 0.776547 0.071041
C13   C     C_R   0.022043 0.550574 0.290932 0.111596
C14   C     C_R   0.936367 0.452392 0.192642 -0.175310
C15   C     C_R   0.935540 0.430212 0.093211 -0.107740
C16   C     C_R   0.505849 0.201360 0.407813 -0.169899
C17   C     C_R   0.019667 0.505783 0.090903 -0.097903
C18   C     C_R   0.929073 0.569273 0.400385 -0.228492
C19   C     C_R   0.931109 0.606024 0.501248 0.054249
C20   C     C_R   0.034826 0.675742 0.599766 0.034082
C21   C     C_R   0.126823 0.671872 0.596585 -0.231221
C22   C     C_R   0.117730 0.609774 0.495805 0.053089
C23   C     C_R   0.567213 0.197543 0.497995 0.072225
C24   C     C_R   0.023622 0.575295 0.396785 0.031860
C25   C     C_R   0.999580 0.823207 0.695569 -0.135607
C26   C     C_R   0.019474 0.906707 0.791454 -0.101866
C27   C     C_R   0.090962 0.927408 0.894854 -0.097989
C28   C     C_R   0.291249 0.598265 0.589617 -0.135325
C29   C     C_R   0.140631 0.862923 0.902663 -0.091008
C30   C     C_R   0.120891 0.779085 0.806952 -0.165169
C31   C     C_R   0.050756 0.758961 0.702249 0.098347
C32   C     C_R   0.450248 0.344907 0.876342 0.164255
C33   C     C_R   0.406033 0.400560 0.832449 0.030943
C34   C     C_R   0.197976 0.570606 0.496978 0.065853
C35   C     C_R   0.332506 0.425338 0.861553 -0.192461
C36   C     C_R   0.328447 0.421763 0.953038 -0.198991
C37   C     C_R   0.397303 0.392554 0.014246 0.029852
C38   C     C_R   0.445427 0.340546 0.965812 0.168690
C39   C     C_3   0.557774 0.351677 0.015212 -0.517709
C40   C     C_R   0.596357 0.290386 0.590489 -0.130342
C41   C     C_3   0.563593 0.357127 0.917967 -0.521519
C42   C     C_R   0.551345 0.926481 0.394739 0.128502
C43   C     C_R   0.593685 0.926393 0.494408 0.045279
C44   C     C_R   0.666921 0.028680 0.592445 -0.204809
C45   C     C_R   0.473941 0.721238 0.406966 -0.140759
C46   C     C_R   0.671860 0.124313 0.592507 -0.180615
C47   C     C_R   0.604310 0.117193 0.494262 0.003155
C48   C     C_R   0.558094 0.021083 0.394292 0.132783
C49   C     C_3   0.447446 0.957794 0.290643 0.151899
C50   C     C_3   0.439270 0.854901 0.292829 -0.601610
C51   C     C_R   0.972719 0.075233 0.120914 0.121057
C52   C     C_R   0.199024 0.503583 0.407084 -0.148789
C53   C     C_R   0.069870 0.072924 0.170895 0.051317
C54   C     C_R   0.067614 0.971559 0.137073 -0.207100
C55   C     C_R   0.973980 0.877190 0.043559 -0.185968
C56   C     C_R   0.815649 0.566372 0.593030 -0.132251
C57   C     C_R   0.881860 0.883657 0.984354 0.049405
C58   C     C_R   0.879246 0.981142 0.028045 0.107263
C59   C     C_3   0.805901 0.997981 0.072588 -0.453909
C60   C     C_3   0.907480 0.099989 0.173523 -0.465134
C61   C     C_R   0.435366 0.527231 0.751002 -0.115787
C62   C     C_R   0.277342 0.185207 0.252110 -0.124440
C63   C     C_R   0.173992 0.174709 0.227296 0.042356
C64   C     C_R   0.494427 0.402345 0.195572 -0.161968
C65   C     C_R   0.709231 0.800728 0.803920 -0.150342
C66   C     C_R   0.801161 0.709123 0.804831 -0.115513
H1    H     H_    0.120081 0.298502 0.241861 0.103888
H2    H     H_    0.169567 0.662384 0.185914 0.111402
H3    H     H_    0.172093 0.703068 0.362172 0.115991
H4    H     H_    0.552592 0.374083 0.749059 0.110923
H5    H     H_    0.871130 0.392527 0.193226 0.115140
H6    H     H_    0.869735 0.354294 0.017937 0.107188
H7    H     H_    0.853464 0.532936 0.323890 0.121519
H8    H     H_    0.204679 0.716254 0.672878 0.125336
H9    H     H_    0.945722 0.809904 0.616141 0.117201
H10   H     H_    0.980388 0.956210 0.785617 0.112238
H11   H     H_    0.107859 0.993551 0.968883 0.123223
H12   H     H_    0.878705 0.616623 0.678879 0.115929
H13   H     H_    0.195078 0.878446 0.982985 0.149247
H14   H     H_    0.160293 0.730121 0.814699 0.121667
H15   H     H_    0.289616 0.460827 0.824014 0.130098
H16   H     H_    0.487140 0.155242 0.324440 0.152633
H17   H     H_    0.282658 0.454767 0.982668 0.127242
H18   H     H_    0.620103 0.429944 0.094519 0.199907
H19   H     H_    0.554231 0.276134 0.016017 0.198869
H20   H     H_    0.629232 0.438762 0.942921 0.204197
H21   H     H_    0.564115 0.285038 0.863279 0.191811
H22   H     H_    0.708793 0.033860 0.670865 0.123775
H23   H     H_    0.513472 0.337695 0.167528 0.114285
H24   H     H_    0.716926 0.199386 0.671144 0.121158
H25   H     H_    0.383364 0.975498 0.301810 0.090774
H26   H     H_    0.372562 0.816745 0.308863 0.171542
H27   H     H_    0.324990 0.659792 0.673865 0.093421
H28   H     H_    0.439716 0.797003 0.222711 0.233340
H29   H     H_    0.140989 0.966584 0.175209 0.129064
H30   H     H_    0.978167 0.802541 0.013046 0.127682
H31   H     H_    0.746598 0.015969 0.022852 0.186878
H32   H     H_    0.767994 0.932312 0.089678 0.208236
H33   H     H_    0.907043 0.177079 0.182335 0.184765
H34   H     H_    0.676550 0.852628 0.832002 0.100940
H35   H     H_    0.929364 0.094179 0.249876 0.203766
H36   H     H_    0.657899 0.322576 0.674678 0.083297
H37   H     H_    0.146545 0.473542 0.321268 0.118597
H38   H     H_    0.381896 0.559453 0.762005 0.098627
H39   H     H_    0.299457 0.121630 0.241965 0.106911
H40   H     H_    0.446521 0.696667 0.321571 0.116505
H41   H     H_    0.853295 0.676636 0.833240 0.087626
H42   H     H_    0.342562 0.518114 0.165594 0.088930
H43   H     H_    0.616818 0.880025 0.676814 0.094296
H44   H     H_    0.700655 0.446049 0.323192 0.093688
H45   H     H_    0.018934 0.488365 0.013865 0.100073
N1    N     N_R   0.291070 0.347930 0.293870 -0.041449
N2    N     N_R   0.497240 0.291100 0.443210 -0.038609
N3    N     N_R   0.347890 0.554050 0.556810 -0.039717
N4    N     N_R   0.554050 0.347900 0.556830 -0.039475
N5    N     N_R   0.291070 0.497250 0.443190 -0.040343
N6    N     N_R   0.497240 0.554030 0.706140 -0.040667
N7    N     N_R   0.347890 0.291110 0.293870 -0.038425
N8    N     N_R   0.445950 0.652100 0.443170 -0.041148
N9    N     N_R   0.708930 0.502750 0.556810 -0.043234
N10   N     N_R   0.502760 0.445970 0.293860 -0.039680
N11   N     N_R   0.652110 0.708890 0.706130 -0.039283
N12   N     N_R   0.708930 0.652070 0.706130 -0.041994
N13   N     N_R   0.445950 0.502780 0.293850 -0.040155
N14   N     N_R   0.502760 0.708900 0.556790 -0.039898
N15   N     N_R   0.652110 0.445950 0.443190 -0.039120
N16   N     N_R   0.554050 0.497220 0.706150 -0.041578
Ni1   Ni    Ni4+2 0.369690 0.500010 0.369700 0.212816
Ni2   Ni    Ni4+2 0.630310 0.499990 0.630300 0.208556
Ni3   Ni    Ni4+2 0.500000 0.369720 0.369720 0.226075
Ni4   Ni    Ni4+2 0.500000 0.630280 0.630280 0.213313

loop_
_geom_bond_atom_site_label_1
_geom_bond_atom_site_label_2
_ccdc_geom_bond_type
C54   C55   A    
C10   C17   A    
C25   C31   A    
N11   Ni4   S    
C34   C52   A    
N2    Ni3   S    
C56   H12   S    
C18   C19   A    
N9    Ni2   S    
C59   H32   S    
C66   N12   A    
N11   N12   A    
C61   H38   S    
C9    C66   A    
C14   H5    S    
C25   C26   A    
C7    C19   S    
N1    Ni1   S    
C32   C41   S    
C21   H8    S    
C35   C36   A    
C9    C57   S    
C17   H45   S    
C5    N15   A    
N9    N15   A    
C59   H31   S    
C51   C60   S    
C37   C38   A    
C1    N1    A    
N8    N14   A    
C66   H41   S    
C52   H37   S    
C14   C15   A    
C5    H44   S    
C44   C46   A    
C39   H19   S    
C11   H3    S    
N1    N7    A    
C12   C61   A    
C30   C31   A    
C1    C63   A    
N3    N5    A    
C25   H9    S    
C36   H17   S    
C44   H22   S    
Br1   C49   S    
C4    C12   A    
C29   H13   S    
N5    Ni1   S    
C39   C41   S    
C28   N3    A    
C58   C59   S    
C20   C21   A    
C23   C40   A    
C65   H34   S    
N6    N16   A    
C55   H30   S    
C3    C6    A    
C51   C53   A    
C16   N2    A    
C49   C50   S    
C8    C64   A    
N3    Ni4   S    
C9    C65   A    
C64   H23   S    
C20   C31   S    
C16   C23   A    
N12   Ni2   S    
C15   H6    S    
C23   C47   S    
C6    C45   A    
C35   H15   S    
C38   C39   S    
C42   C48   A    
C5    C7    A    
C57   C58   A    
C64   N10   A    
N8    Ni1   S    
C59   C60   S    
C16   H16   S    
C39   H18   S    
C42   C43   A    
C36   C37   A    
C2    C8    A    
C51   C58   A    
C7    C56   A    
C62   N7    A    
N7    Ni3   S    
C46   C47   A    
C13   C14   A    
N14   Ni4   S    
C29   C30   A    
C45   H40   S    
C10   H2    S    
C32   C33   A    
C45   N8    A    
C32   C38   A    
C6    C43   S    
C62   H39   S    
C50   H26   S    
C49   H25   S    
C47   C48   A    
C11   C13   A    
C22   C34   S    
C60   H33   S    
C41   H21   S    
C40   N4    A    
N10   Ni3   S    
C27   H11   S    
C43   C44   A    
C3    H43   S    
C53   C54   A    
C65   N11   A    
C46   H24   S    
C18   H7    S    
C54   H29   S    
C26   H10   S    
N16   Ni2   S    
N2    N4    A    
C10   C11   A    
C2    N13   A    
C28   C34   A    
C1    H1    S    
C30   H14   S    
C3    N14   A    
N10   N13   A    
C27   C29   A    
C60   H35   S    
C12   C33   S    
C4    H4    S    
C40   H36   S    
C42   C50   S    
C28   H27   S    
C53   C63   S    
C2    H42   S    
C4    N16   A    
C8    C37   S    
C33   C35   A    
C55   C57   A    
C52   N5    A    
C22   C24   A    
C13   C24   S    
C18   C24   A    
N15   Ni3   S    
C61   N6    A    
N6    Ni4   S    
C56   N9    A    
C62   C63   A    
N13   Ni1   S    
N4    Ni2   S    
C19   C20   A    
C15   C17   A    
C48   C49   S    
C26   C27   A    
C21   C22   A    
C41   H20   S    
C50   H28   S    
