data_str_m3_o14_o22_f0_pcu.sym.138
_audit_creation_date              2013-03-05T15:53:45-0500
_audit_creation_method            fapswitch 2.2
_symmetry_space_group_name_H-M    P1
_symmetry_Int_Tables_number       1
_space_group_crystal_system       triclinic
_cell_length_a                    10.795726
_cell_length_b                    10.77527
_cell_length_c                    10.066014
_cell_angle_alpha                 90.961888
_cell_angle_beta                  87.549692
_cell_angle_gamma                 97.479131
_cell_volume                      1159.84984201

loop_
_atom_site_label
_atom_site_type_symbol
_atom_site_description
_atom_site_fract_x
_atom_site_fract_y
_atom_site_fract_z
_atom_type_partial_charge
O1    O     O_R   0.500000 0.316780 0.614690 -0.610362
O2    O     O_R   0.499990 0.316750 0.385360 -0.616706
C1    C     C_R   0.511180 0.262277 0.499056 0.867237
O3    O     O_R   0.314800 0.499990 0.614670 -0.629682
O4    O     O_R   0.314790 0.499970 0.385330 -0.614035
C2    C     C_R   0.256018 0.497173 0.502022 0.811762
Zn1   Zn    Zn3+2 0.500010 0.500020 0.653130 0.924130
Zn2   Zn    Zn3+2 0.499990 0.499980 0.346870 0.932653
O5    O     O_R   0.500010 0.683250 0.614640 -0.632212
O6    O     O_R   0.500000 0.683220 0.385310 -0.620575
O7    O     O_R   0.685210 0.500030 0.614670 -0.630218
O8    O     O_R   0.685200 0.500010 0.385330 -0.631525
C3    C     C_R   0.493363 0.739059 0.502555 0.852442
C4    C     C_R   0.741522 0.511397 0.497293 0.823175
C5    C     C_3   0.034540 0.372401 0.557103 0.425514
C6    C     C_3   0.897203 0.377174 0.524644 -0.386803
H1    H     H_    0.868177 0.315080 0.438597 0.155061
H2    H     H_    0.833920 0.339735 0.608724 0.194177
H3    H     H_    0.119076 0.620124 0.684753 0.215570
H4    H     H_    0.902062 0.583341 0.697146 0.217809
C7    C     C_3   0.081001 0.618209 0.584246 0.021968
C8    C     C_3   0.075392 0.521046 0.356521 -0.397464
C9    C     C_3   0.116201 0.500625 0.503333 0.041871
H5    H     H_    0.135146 0.599883 0.306355 0.211821
H6    H     H_    0.083908 0.438255 0.293677 0.181423
C10   C     C_3   0.876223 0.511762 0.492708 0.065473
C11   C     C_3   0.936355 0.609617 0.594843 -0.363911
C12   C     C_3   0.937973 0.543601 0.354331 -0.420930
H7    H     H_    0.891135 0.483873 0.274938 0.206923
H8    H     H_    0.930693 0.642494 0.329392 0.184047
H9    H     H_    0.905073 0.702384 0.577776 0.163378
H10   H     H_    0.485861 0.105451 0.291399 0.175093
C13   C     C_R   0.614710 0.132955 0.722488 -0.143409
H11   H     H_    0.663979 0.226212 0.711569 0.171287
C14   C     C_R   0.617042 0.075263 0.844775 -0.161843
H12   H     H_    0.665368 0.124673 0.925894 0.170848
C15   C     C_R   0.544407 0.960699 0.866932 -0.200067
H13   H     H_    0.531548 0.925382 0.967402 0.140453
C16   C     C_R   0.482166 0.895797 0.762063 0.244696
C17   C     C_R   0.504073 0.942997 0.629839 0.129568
C18   C     C_R   0.549783 0.070352 0.616776 0.087288
C19   C     C_R   0.526287 0.130709 0.498674 -0.102385
C20   C     C_R   0.496140 0.060924 0.384382 -0.212429
H14   H     H_    0.462308 0.881325 0.296360 0.172243
C21   C     C_R   0.479577 0.932758 0.388574 -0.205628
C22   C     C_R   0.484479 0.872147 0.509652 -0.139054
C23   C     C_R   0.393891 0.283319 0.135501 0.214163
C24   C     C_R   0.388784 0.171369 0.062495 -0.372044
H15   H     H_    0.360305 0.083900 0.113574 0.191801
C25   C     C_R   0.361059 0.175678 0.929266 0.318400
C26   C     C_R   0.375223 0.293885 0.868767 0.072094
C27   C     C_R   0.444838 0.396761 0.929806 -0.000684
C28   C     C_R   0.447555 0.395089 0.072025 0.064280
N1    N     N_R   0.498810 0.498800 0.142780 -0.126130
C29   C     C_R   0.571722 0.590395 0.070174 0.219579
C30   C     C_R   0.574767 0.588042 0.926725 0.201548
N2    N     N_R   0.498760 0.498720 0.857170 -0.131043
N3    N     N_R   0.032321 0.351318 0.702432 0.186492
O9    O     O_R   0.031236 0.442796 0.787973 -0.482820
O10   O     O_R   0.986266 0.240694 0.745858 -0.397241
C31   C     C_3   0.138248 0.745669 0.524946 -0.907468
H16   H     H_    0.130157 0.821491 0.599791 0.280875
H17   H     H_    0.238275 0.745454 0.496567 0.233651
H18   H     H_    0.089784 0.769975 0.435938 0.258471
C32   C     C_3   0.374298 0.797335 0.800443 -0.739175
H19   H     H_    0.313338 0.771945 0.716349 0.240382
H20   H     H_    0.407794 0.712930 0.837949 0.234666
H21   H     H_    0.315727 0.831582 0.882188 0.262372
C33   C     C_3   0.657988 0.689387 0.140598 -0.834308
H22   H     H_    0.754382 0.696713 0.096192 0.221217
H23   H     H_    0.622760 0.781358 0.135152 0.215641
H24   H     H_    0.669324 0.667029 0.244416 0.285383
C34   C     C_3   0.077156 0.254583 0.486873 -0.917459
H25   H     H_    0.017826 0.167798 0.520315 0.287614
H26   H     H_    0.067431 0.255494 0.378290 0.217378
H27   H     H_    0.174476 0.244292 0.509368 0.227230
C35   C     C_3   0.278101 0.288099 0.220833 -0.794376
H28   H     H_    0.241772 0.376445 0.200962 0.235833
H29   H     H_    0.201701 0.213195 0.194509 0.227325
H30   H     H_    0.295198 0.275915 0.326024 0.261258
N4    N     N_R   0.282234 0.071749 0.872365 0.202222
O11   O     O_R   0.275392 0.059553 0.743933 -0.417294
O12   O     O_R   0.199262 0.004577 0.947873 -0.422820
C36   C     C_3   0.264040 0.321502 0.801674 -0.568074
H31   H     H_    0.250389 0.420832 0.817891 0.244612
H32   H     H_    0.270149 0.292469 0.696402 0.254351
H33   H     H_    0.180406 0.269105 0.851734 0.271248
C37   C     C_3   0.673922 0.675971 0.853717 -0.826826
H34   H     H_    0.664570 0.676611 0.746452 0.285287
H35   H     H_    0.673185 0.773183 0.889791 0.226823
H36   H     H_    0.766980 0.647790 0.871383 0.226896

loop_
_geom_bond_atom_site_label_1
_geom_bond_atom_site_label_2
_geom_bond_distance
_ccdc_geom_bond_type
C29   C30   1.442797 A    
C1    C19   1.447898 S    
C31   H18   1.108467 S    
C16   C32   1.511490 S    
C34   H25   1.110966 S    
C14   H12   1.082542 S    
C36   H33   1.107176 S    
N4    O11   1.301535 A    
C35   H28   1.100145 S    
C27   C28   1.433587 A    
C17   C22   1.428303 A    
C10   C11   1.559699 S    
C12   H7    1.114052 S    
H3    C7    1.107069 S    
C36   H32   1.101535 S    
O4    C2    1.309851 A    
O7    C4    1.305611 A    
C30   C37   1.508541 S    
N3    O10   1.305293 A    
C5    C6    1.539317 S    
C30   N2    1.382302 A    
C31   H17   1.105424 S    
C18   C19   1.412547 A    
C33   H23   1.109712 S    
O5    C3    1.296396 A    
C6    H1    1.115909 S    
C32   H20   1.099670 S    
C8    H6    1.096297 S    
C7    C31   1.549046 S    
C23   C28   1.416659 A    
C24   C25   1.389343 A    
C7    C11   1.551408 S    
C8    C12   1.535347 S    
C34   H26   1.102823 S    
C31   H16   1.111307 S    
O3    Zn1   2.052752 S    
N4    O12   1.302080 A    
C13   H11   1.079034 S    
C35   H29   1.113614 S    
C6    C10   1.537917 S    
C11   H9    1.114147 S    
C26   C27   1.403883 A    
C36   H31   1.107735 S    
O3    C2    1.320886 A    
Zn2   N1    2.054773 S    
C16   C17   1.431986 A    
N3    O9    1.298770 A    
C28   N1    1.381402 A    
O1    C1    1.302990 A    
C33   H24   1.091866 S    
Zn1   O7    2.020177 S    
C15   H13   1.083536 S    
C5    N3    1.482889 S    
C23   C24   1.398072 A    
C37   H36   1.108884 S    
Zn2   O8    2.052755 S    
C32   H21   1.104153 S    
C25   C26   1.408536 A    
C4    C10   1.452449 S    
C20   C21   1.370409 A    
C29   C33   1.509995 S    
C6    H2    1.111779 S    
C24   H15   1.083755 S    
C5    C34   1.554737 S    
C37   H35   1.103762 S    
C7    C9    1.573939 S    
C34   H27   1.104054 S    
C8    H5    1.112056 S    
C19   C20   1.390747 A    
C23   C35   1.492149 S    
H14   C21   1.083575 S    
C35   H30   1.095521 S    
Zn1   O5    2.018380 S    
N1    C29   1.378628 A    
C17   C18   1.402920 A    
C14   C15   1.389539 A    
O1    Zn1   2.005620 S    
O2    Zn2   2.018380 S    
O8    C4    1.299795 A    
O6    C3    1.319151 A    
O4    Zn2   2.020176 S    
H4    C11   1.107967 S    
C10   C12   1.542533 S    
C13   C18   1.412530 A    
C12   H8    1.112274 S    
O2    C1    1.312154 A    
C15   C16   1.403006 A    
C3    C22   1.450038 S    
C2    C9    1.514208 S    
C5    C9    1.626746 S    
C13   C14   1.390940 A    
H10   C20   1.075342 S    
C33   H22   1.108605 S    
C27   N2    1.380053 A    
C21   C22   1.398562 A    
C37   H34   1.088953 S    
Zn2   O6    2.005620 S    
C32   H19   1.103396 S    
C8    C9    1.586909 S    
C26   C36   1.467798 S    
Zn1   N2    2.053609 S    
C25   N4    1.441654 S    
