data_str_m2_o14_o23_f0_pcu.sym.34
_audit_creation_date              2012-10-26T19:05:04-0400
_audit_creation_method            fapswitch 2.2
_symmetry_space_group_name_H-M    P1
_symmetry_Int_Tables_number       1
_space_group_crystal_system       triclinic
_cell_length_a                    15.869753
_cell_length_b                    10.806041
_cell_length_c                    9.739727
_cell_angle_alpha                 89.564545
_cell_angle_beta                  90.33282
_cell_angle_gamma                 95.536027
_cell_volume                      1662.39785128

loop_
_atom_site_label
_atom_site_type_symbol
_atom_type_description
_atom_site_fract_x
_atom_site_fract_y
_atom_site_fract_z
_atom_type_partial_charge
C1    C     C_R   0.492294 0.262555 0.500172 0.532766
C2    C     C_R   0.282269 0.019351 0.686641 0.037849
C3    C     C_R   0.296414 0.895752 0.709273 -0.131369
C4    C     C_R   0.340987 0.503475 0.499530 0.525205
C5    C     C_R   0.362191 0.845013 0.643823 -0.132292
C6    C     C_R   0.423314 0.920685 0.568563 0.016812
C7    C     C_R   0.415099 0.050049 0.556082 0.021469
C8    C     C_R   0.484332 0.127230 0.497893 0.003638
C9    C     C_R   0.552907 0.074858 0.440925 -0.142349
C10   C     C_R   0.555967 0.948037 0.441854 -0.166491
C11   C     C_R   0.491741 0.870190 0.503086 0.009478
C12   C     C_3   0.950487 0.458537 0.644156 -0.080583
C13   C     C_R   0.640893 0.626438 0.134762 0.077684
C14   C     C_R   0.716786 0.635557 0.059268 0.002354
C15   C     C_R   0.710798 0.651939 0.918090 -0.163011
C16   C     C_R   0.498592 0.736942 0.500321 0.521601
C17   C     C_R   0.632117 0.632428 0.855046 -0.096573
C18   C     C_R   0.564597 0.566165 0.924587 0.121465
C19   C     C_R   0.566403 0.564999 0.072596 0.130008
C20   C     C_R   0.439988 0.429355 0.073721 0.127282
C21   C     C_R   0.438570 0.432148 0.926194 0.120301
C22   C     C_R   0.659328 0.500687 0.500325 0.538049
C23   C     C_3   0.917013 0.502899 0.502282 0.068926
C24   C     C_3   0.048387 0.457100 0.639306 -0.181463
C25   C     C_3   0.042730 0.421520 0.380923 -0.092821
C26   C     C_3   0.944535 0.418770 0.385679 -0.192185
C27   C     C_1   0.749046 0.502001 0.501263 -0.049043
C28   C     C_3   0.083486 0.506449 0.498517 0.095496
C29   C     C_3   0.907789 0.331915 0.693403 -0.426661
C30   C     C_3   0.300167 0.198912 0.524096 -0.393121
C31   C     C_3   0.204720 0.064817 0.751040 -0.416021
C32   C     C_3   0.375434 0.339289 0.144572 -0.342409
C33   C     C_3   0.633996 0.740560 0.219391 -0.340535
C34   C     C_3   0.957900 0.637074 0.475207 -0.219099
C35   C     C_3   0.801616 0.660627 0.128512 -0.411043
C36   C     C_3   0.365576 0.360340 0.851858 -0.340271
C37   C     C_3   0.070462 0.288671 0.379941 -0.432749
C38   C     C_3   0.097362 0.740089 0.570574 -0.429060
C39   C     C_3   0.056259 0.640456 0.472210 -0.097796
C40   C     C_1   0.824664 0.502847 0.501937 -0.084948
C41   C     C_1   0.176031 0.507447 0.497626 -0.076077
C42   C     C_1   0.251528 0.506493 0.498254 -0.058129
C43   C     C_R   0.336960 0.093778 0.598078 0.018828
Cu1   Cu    Cu3+1 0.499990 0.499990 0.640660 0.899723
Cu2   Cu    Cu3+1 0.500010 0.500010 0.359340 0.913112
H1    H     H_    0.935778 0.527548 0.722847 0.123418
H2    H     H_    0.920971 0.256015 0.623016 0.132069
H3    H     H_    0.932292 0.309829 0.796911 0.116889
H4    H     H_    0.077701 0.514644 0.724247 0.093808
H5    H     H_    0.935191 0.671995 0.375117 0.096376
H6    H     H_    0.605671 0.133180 0.397328 0.127519
H7    H     H_    0.236491 0.165675 0.483746 0.120365
H8    H     H_    0.293048 0.276500 0.594258 0.124970
H9    H     H_    0.337170 0.230923 0.433783 0.117477
H10   H     H_    0.201824 0.166317 0.738911 0.121568
H11   H     H_    0.146871 0.015816 0.704615 0.120434
H12   H     H_    0.253080 0.836058 0.771940 0.108022
H13   H     H_    0.204914 0.044725 0.863038 0.123500
H14   H     H_    0.611305 0.911827 0.400541 0.095736
H15   H     H_    0.382234 0.243110 0.110029 0.095264
H16   H     H_    0.383075 0.332817 0.253661 0.197639
H17   H     H_    0.310392 0.364846 0.123900 0.095656
H18   H     H_    0.067570 0.362304 0.659076 0.114938
H19   H     H_    0.647157 0.721484 0.328701 0.149242
H20   H     H_    0.681256 0.818693 0.189076 0.090470
H21   H     H_    0.572428 0.778227 0.199748 0.153668
H22   H     H_    0.795870 0.649195 0.241525 0.136164
H23   H     H_    0.364673 0.746280 0.656097 0.159227
H24   H     H_    0.845112 0.593935 0.090943 0.123526
H25   H     H_    0.829101 0.756861 0.105202 0.116893
H26   H     H_    0.387542 0.317972 0.759453 0.197669
H27   H     H_    0.334832 0.278872 0.907178 0.076756
H28   H     H_    0.315424 0.422444 0.829450 0.130131
H29   H     H_    0.064062 0.464180 0.280935 0.118162
H30   H     H_    0.051123 0.236396 0.474798 0.132437
H31   H     H_    0.040843 0.236941 0.291099 0.118934
H32   H     H_    0.140038 0.291202 0.367841 0.133905
H33   H     H_    0.076932 0.721799 0.678143 0.127288
H34   H     H_    0.765828 0.685818 0.858533 0.112261
H35   H     H_    0.167345 0.744462 0.565294 0.148556
H36   H     H_    0.078771 0.832876 0.539727 0.122041
H37   H     H_    0.936816 0.700112 0.555393 0.114580
H38   H     H_    0.626608 0.666081 0.752033 0.176542
H39   H     H_    0.913912 0.322520 0.399080 0.126676
H40   H     H_    0.921281 0.452226 0.285223 0.094685
H41   H     H_    0.077609 0.670434 0.367274 0.123092
H42   H     H_    0.838263 0.334341 0.702003 0.150054
N1    N     N_R   0.500800 0.501210 0.147910 -0.238159
N2    N     N_R   0.500820 0.501290 0.852040 -0.240610
O1    O     O_R   0.499990 0.319640 0.618810 -0.496567
O2    O     O_R   0.500000 0.319660 0.381240 -0.514634
O3    O     O_R   0.379430 0.499990 0.618840 -0.524883
O4    O     O_R   0.379440 0.500020 0.381260 -0.506203
O5    O     O_R   0.500000 0.680340 0.618760 -0.523232
O6    O     O_R   0.500010 0.680360 0.381190 -0.505499
O7    O     O_R   0.620560 0.499980 0.618740 -0.504903
O8    O     O_R   0.620570 0.500010 0.381160 -0.489864

loop_
_geom_bond_atom_site_label_1
_geom_bond_atom_site_label_2
_ccdc_geom_bond_type
C1    O1    A    
C12   C29   S    
C1    C8    S    
C41   C42   T    
C9    H6    S    
Cu2   O4    S    
C33   H20   S    
C7    C8    A    
C21   C36   S    
C21   N2    A    
C25   C28   S    
C30   H9    S    
C12   C23   S    
C4    C42   S    
C29   H2    S    
C31   H13   S    
C32   H16   S    
C18   C19   A    
C33   H19   S    
C38   C39   S    
C23   C40   S    
C28   C41   S    
C25   H29   S    
C23   C26   S    
C25   C37   S    
C15   H34   S    
C35   H25   S    
C8    C9    A    
C7    C43   A    
C31   H11   S    
C9    C10   A    
C2    C43   A    
Cu1   O3    S    
C36   H26   S    
C37   H30   S    
C1    O2    A    
C22   O8    A    
C13   C14   A    
C5    H23   S    
C33   H21   S    
C30   H8    S    
C34   H5    S    
C13   C19   A    
C29   H3    S    
C34   C39   S    
Cu2   N1    S    
C12   H1    S    
C19   N1    A    
C36   H28   S    
C14   C35   S    
C38   H33   S    
C28   C39   S    
C25   C26   S    
C37   H32   S    
C2    C31   S    
C17   H38   S    
C13   C33   S    
Cu1   O7    S    
C11   C16   S    
C35   H22   S    
C27   C40   T    
C23   C34   S    
C17   C18   A    
C3    H12   S    
C37   H31   S    
C24   H18   S    
C22   C27   S    
C38   H36   S    
C30   C43   S    
C32   H15   S    
Cu2   O6    S    
C6    C11   A    
Cu1   O1    S    
Cu1   Cu2   S    
C20   C32   S    
C24   H4    S    
C15   C17   A    
C30   H7    S    
C16   O6    A    
C26   H39   S    
C18   N2    A    
C22   O7    A    
C24   C28   S    
C3    C5    A    
C6    C7    A    
C12   C24   S    
C16   O5    A    
C10   H14   S    
C32   H17   S    
Cu2   O8    S    
C5    C6    A    
C38   H35   S    
C26   H40   S    
C20   N1    A    
C2    C3    A    
Cu2   O2    S    
C29   H42   S    
Cu1   O5    S    
C10   C11   A    
C4    O4    A    
C20   C21   A    
C35   H24   S    
C14   C15   A    
C34   H37   S    
C39   H41   S    
C31   H10   S    
Cu1   N2    S    
C36   H27   S    
C4    O3    A    
