data_str_m2_o12_o16_f0_pcu.sym.14
_audit_creation_date              2012-10-26T19:20:59-0400
_audit_creation_method            fapswitch 2.2
_symmetry_space_group_name_H-M    P1
_symmetry_Int_Tables_number       1
_space_group_crystal_system       triclinic
_cell_length_a                    9.873104
_cell_length_b                    11.024412
_cell_length_c                    13.345487
_cell_angle_alpha                 97.831824
_cell_angle_beta                  78.717427
_cell_angle_gamma                 110.839723
_cell_volume                      1327.7998574

loop_
_atom_site_label
_atom_site_type_symbol
_atom_type_description
_atom_site_fract_x
_atom_site_fract_y
_atom_site_fract_z
_atom_type_partial_charge
C1    C     C_R   0.555350 0.745421 0.509288 0.569839
C2    C     C_R   0.367955 0.476224 0.805126 -0.003352
C3    C     C_2   0.579847 0.884698 0.526447 -0.137116
C4    C     C_R   0.420034 0.490675 0.692246 0.573716
C5    C     C_2   0.473966 0.930235 0.517811 -0.173818
C6    C     C_2   0.411934 0.115551 0.495323 -0.104054
C7    C     C_2   0.482468 0.065647 0.546780 -0.012143
C8    C     C_2   0.946615 0.525302 0.472531 0.043419
C9    C     C_2   0.085503 0.528346 0.501238 0.118161
C10   C     C_R   0.442211 0.255040 0.496529 0.588609
C11   C     C_R   0.579561 0.512643 0.309254 0.531301
C12   C     C_R   0.448278 0.465505 0.965676 0.014916
C13   C     C_R   0.797793 0.660737 0.065796 -0.139956
C14   C     C_R   0.629828 0.531865 0.199911 -0.004990
C15   C     C_R   0.221403 0.397077 0.844122 0.001153
C16   C     C_R   0.200844 0.329429 0.932903 0.029909
C17   C     C_R   0.316400 0.361823 0.989109 -0.124804
C18   C     C_2   0.150009 0.646969 0.566987 0.265383
C19   C     C_3   0.943828 0.524277 0.358242 -0.219354
C20   C     C_3   0.086561 0.531283 0.282249 -0.336406
C21   C     C_3   0.079887 0.561500 0.175387 -0.466535
C22   C     C_3   0.095894 0.387961 0.788302 -0.244247
C23   C     C_R   0.474333 0.522996 0.872176 0.024769
C24   C     C_3   0.945336 0.377876 0.852823 -0.336103
C25   C     C_3   0.853170 0.421789 0.795542 -0.423813
C26   C     C_3   0.060477 0.221756 0.972175 -0.241286
C27   C     C_3   0.019286 0.104259 0.893760 -0.286897
C28   C     C_3   0.862826 0.013261 0.925503 -0.461443
C29   C     C_2   0.556876 0.137454 0.635434 0.257601
C30   C     C_R   0.555967 0.512970 0.032213 0.029096
C31   C     C_R   0.691891 0.610508 0.000621 0.048469
C32   C     C_R   0.716814 0.663773 0.907388 -0.158079
C33   C     C_R   0.606972 0.626561 0.847289 -0.120354
C34   C     C_R   0.528696 0.473798 0.132357 -0.134095
C35   C     C_R   0.765430 0.623652 0.165735 -0.148978
Cu1   Cu    Cu3+1 0.362000 0.479240 0.482530 0.956029
Cu2   Cu    Cu3+1 0.638000 0.520760 0.517470 0.935150
H1    H     H_    0.841474 0.673899 0.218222 0.111593
H2    H     H_    0.299871 0.304793 0.052617 0.090499
H3    H     H_    0.626946 0.681758 0.781624 0.134573
H4    H     H_    0.135681 0.736842 0.555024 0.066395
H5    H     H_    0.980828 0.490881 0.146584 0.156240
H6    H     H_    0.079140 0.662109 0.176752 0.145419
H7    H     H_    0.178541 0.554268 0.121779 0.161323
H8    H     H_    0.182783 0.608161 0.309920 0.182038
H9    H     H_    0.103886 0.436159 0.272750 0.158849
H10   H     H_    0.856895 0.434132 0.335176 0.172976
H11   H     H_    0.923318 0.614365 0.349221 0.181101
H12   H     H_    0.378024 0.866491 0.485670 0.140110
H13   H     H_    0.904168 0.527618 0.785216 0.157544
H14   H     H_    0.843653 0.367152 0.719394 0.169181
H15   H     H_    0.741186 0.402768 0.840151 0.187113
H16   H     H_    0.881391 0.275247 0.867630 0.169864
H17   H     H_    0.959335 0.438920 0.926144 0.170866
H18   H     H_    0.129215 0.481165 0.753830 0.227951
H19   H     H_    0.083976 0.309873 0.725206 0.150276
H20   H     H_    0.856871 0.961888 0.993140 0.154133
H21   H     H_    0.784753 0.067863 0.944449 0.150690
H22   H     H_    0.828679 0.941240 0.860695 0.140079
H23   H     H_    0.342389 0.053441 0.441386 0.059688
H24   H     H_    0.027208 0.134828 0.816693 0.170146
H25   H     H_    0.096753 0.049984 0.887267 0.170573
H26   H     H_    0.071820 0.183933 0.042094 0.124128
H27   H     H_    0.970781 0.261720 0.999953 0.129747
H28   H     H_    0.641786 0.110834 0.657676 0.084367
H29   H     H_    0.681952 0.948337 0.550771 0.081013
H30   H     H_    0.094796 0.364233 0.418365 0.187865
H31   H     H_    0.860041 0.557538 0.618736 0.206655
H32   H     H_    0.820268 0.737961 0.882537 0.105791
H33   H     H_    0.901564 0.735615 0.041888 0.104761
H34   H     H_    0.424334 0.406071 0.163228 0.111574
N1    N     N_2   0.845330 0.551960 0.543750 -0.363045
N2    N     N_2   0.154690 0.448120 0.456210 -0.357965
O1    O     O_R   0.426290 0.668220 0.490680 -0.457626
O2    O     O_2   0.517899 0.222185 0.688540 -0.503880
O3    O     O_R   0.659360 0.703290 0.520190 -0.501951
O4    O     O_R   0.326580 0.473880 0.629020 -0.455815
O5    O     O_R   0.559660 0.508940 0.658530 -0.475490
O6    O     O_R   0.340640 0.296710 0.479810 -0.507953
O7    O     O_R   0.573710 0.331780 0.509320 -0.453075
O8    O     O_R   0.440340 0.491060 0.341470 -0.500253
O9    O     O_R   0.673420 0.526120 0.370980 -0.526152
O10   O     O_2   0.206757 0.645598 0.639572 -0.521611

loop_
_geom_bond_atom_site_label_1
_geom_bond_atom_site_label_2
_ccdc_geom_bond_type
C7    C29   S    
C19   C20   S    
C28   H20   S    
C11   O8    A    
C12   C23   A    
C26   C27   S    
C1    O1    A    
Cu1   Cu2   S    
C13   C35   A    
Cu1   O4    S    
C30   C31   A    
C11   C14   S    
C19   H10   S    
C13   H33   S    
C24   H17   S    
C15   C16   A    
C17   H2    S    
C26   H27   S    
C25   H13   S    
C27   H24   S    
C21   H6    S    
C15   C22   S    
C8    C9    S    
C23   C33   A    
C12   C17   A    
H30   N2    S    
C20   H8    S    
C1    O3    A    
C5    H12   S    
C9    N2    D    
C11   O9    A    
C16   C26   S    
Cu2   O7    S    
C8    N1    D    
C33   H3    S    
C30   C34   A    
C8    C19   S    
C6    H23   S    
C35   H1    S    
C24   C25   S    
C18   H4    S    
C14   C35   A    
C5    C7    S    
C10   O7    A    
C19   H11   S    
C16   C17   A    
C22   H19   S    
C24   H16   S    
C1    C3    S    
C2    C4    S    
C26   H26   S    
C25   H14   S    
C4    O5    A    
C27   H25   S    
C21   H7    S    
C31   C32   A    
Cu1   O8    S    
H31   N1    S    
C18   O10   D    
C2    C15   A    
C22   H18   S    
Cu1   O1    S    
C29   H28   S    
Cu2   O3    S    
C22   C24   S    
Cu2   O9    S    
C3    H29   S    
C2    C23   A    
C28   H22   S    
C12   C30   A    
C32   H32   S    
C13   C31   A    
C3    C5    D    
Cu1   O6    S    
C14   C34   A    
C6    C10   S    
C10   O6    A    
C6    C7    D    
C29   O2    D    
C28   H21   S    
Cu2   O5    S    
C32   C33   A    
C25   H15   S    
C4    O4    A    
Cu1   N2    S    
C21   H5    S    
C9    C18   S    
C20   C21   S    
Cu2   N1    S    
C27   C28   S    
C34   H34   S    
C20   H9    S    
