data_str_m2_o4_o14_f0_pcu.sym.239
_audit_creation_date              2013-03-05T16:31:07-0500
_audit_creation_method            fapswitch 2.2
_symmetry_space_group_name_H-M    P1
_symmetry_Int_Tables_number       1
_space_group_crystal_system       triclinic
_cell_length_a                    10.834454
_cell_length_b                    10.812731
_cell_length_c                    9.549715
_cell_angle_alpha                 89.837272
_cell_angle_beta                  89.886978
_cell_angle_gamma                 89.0355
_cell_volume                      1118.58436968

loop_
_atom_site_label
_atom_site_type_symbol
_atom_site_description
_atom_site_fract_x
_atom_site_fract_y
_atom_site_fract_z
_atom_type_partial_charge
O1    O     O_R   0.500000 0.319640 0.618810 -0.586650
O2    O     O_R   0.500010 0.319680 0.381230 -0.534127
C1    C     C_R   0.506512 0.262573 0.500301 0.895099
O3    O     O_R   0.319640 0.499980 0.618820 -0.608469
O4    O     O_R   0.319650 0.500020 0.381230 -0.542880
C2    C     C_R   0.262364 0.503986 0.500667 0.878060
Cu1   Cu    Cu3+1 0.499990 0.499980 0.640670 0.961192
Cu2   Cu    Cu3+1 0.500010 0.500020 0.359330 1.032579
O5    O     O_R   0.499990 0.680320 0.618770 -0.617962
O6    O     O_R   0.500000 0.680360 0.381190 -0.585191
O7    O     O_R   0.680350 0.499980 0.618770 -0.582021
O8    O     O_R   0.680360 0.500020 0.381180 -0.564899
C3    C     C_R   0.499473 0.737587 0.499720 0.833575
C4    C     C_R   0.737112 0.505826 0.499732 0.828375
C5    C     C_R   0.123740 0.670963 0.689287 -0.082997
C6    C     C_R   0.057175 0.750230 0.777296 -0.066074
H1    H     H_    0.105266 0.809900 0.848989 0.142088
C7    C     C_R   0.929539 0.757237 0.768693 -0.094010
C8    C     C_R   0.867568 0.682435 0.674772 -0.154896
H2    H     H_    0.768936 0.696022 0.666609 0.137792
C9    C     C_R   0.932466 0.595350 0.590802 0.099729
C10   C     C_R   0.063005 0.590973 0.595109 0.071729
C11   C     C_R   0.128032 0.509192 0.502826 -0.221401
C12   C     C_R   0.063359 0.433880 0.408393 0.317639
H3    H     H_    0.886807 0.380669 0.334885 0.237274
C13   C     C_R   0.935748 0.440202 0.405898 -0.204393
C14   C     C_R   0.870380 0.515706 0.498829 -0.174655
C15   C     C_R   0.465926 0.065205 0.614171 0.016396
C16   C     C_R   0.519827 0.129138 0.503288 -0.165210
C17   C     C_R   0.582341 0.061328 0.396910 0.337036
C18   C     C_R   0.574930 0.931902 0.396977 -0.253181
H4    H     H_    0.623402 0.879151 0.317486 0.175703
C19   C     C_R   0.505618 0.870796 0.499289 -0.079896
C20   C     C_R   0.453486 0.939000 0.608285 0.009645
C21   C     C_3   0.323494 0.946579 0.664551 0.155954
C22   C     C_3   0.342143 0.085131 0.679619 -0.429187
H5    H     H_    0.279968 0.144503 0.614534 0.244295
H6    H     H_    0.349790 0.114966 0.790519 0.177979
C23   C     C_R   0.575933 0.576850 0.073177 0.263458
N1    N     N_R   0.500790 0.500930 0.147930 -0.201457
C24   C     C_R   0.432994 0.417181 0.074823 -0.001174
C25   C     C_R   0.433030 0.417136 0.925994 -0.048582
H7    H     H_    0.376650 0.351840 0.870561 0.152133
N2    N     N_R   0.500790 0.500890 0.852020 -0.201445
C26   C     C_R   0.575433 0.577282 0.925743 0.267707
C27   C     C_3   0.572515 0.715206 0.920318 -0.487843
C28   C     C_3   0.574886 0.714636 0.078676 -0.476366
H8    H     H_    0.662423 0.750405 0.121897 0.206733
N3    N     N_R   0.125361 0.345305 0.319451 0.135341
O9    O     O_R   0.207600 0.269136 0.371482 -0.368370
O10   O     O_R   0.085967 0.327317 0.192576 -0.336949
H9    H     H_    0.310309 0.897616 0.765778 0.072404
H10   H     H_    0.376621 0.351868 0.130912 0.190252
H11   H     H_    0.657345 0.753819 0.873435 0.195431
H12   H     H_    0.484578 0.753604 0.877329 0.211916
H13   H     H_    0.489015 0.754392 0.125429 0.234493
H14   H     H_    0.222673 0.677185 0.694991 0.151456
H15   H     H_    0.878544 0.822521 0.833252 0.150578
N4    N     N_R   0.653210 0.121047 0.289730 0.138758
O11   O     O_R   0.724393 0.212357 0.321497 -0.363522
O12   O     O_R   0.661303 0.072902 0.165226 -0.348655
N5    N     N_R   0.227074 0.921450 0.560977 0.149469
O13   O     O_R   0.116668 0.967911 0.579227 -0.317462
O14   O     O_R   0.246087 0.844642 0.458267 -0.372342

loop_
_geom_bond_atom_site_label_1
_geom_bond_atom_site_label_2
_geom_bond_distance
_ccdc_geom_bond_type
C27   H12   1.111713 S    
O4    Cu2   1.964852 S    
N5    O14   1.300888 A    
C11   C12   1.411815 A    
C18   C19   1.401883 A    
C3    C19   1.443002 S    
C16   C17   1.418847 A    
C4    C14   1.449625 S    
C24   C25   1.421275 A    
C8    H2    1.079166 S    
Cu2   O8    1.965514 S    
C17   C18   1.403093 A    
C23   C26   1.407971 A    
C17   N4    1.436658 S    
C27   H11   1.108936 S    
C22   H6    1.111642 S    
C19   C20   1.390805 A    
C9    C14   1.411264 A    
C15   C20   1.374833 A    
N4    O11   1.299952 A    
O1    Cu1   1.961698 S    
Cu1   N2    2.018422 S    
Cu1   O7    1.964852 S    
C5    H14   1.076620 S    
C12   C13   1.383389 A    
C24   H10   1.081553 S    
C13   C14   1.392075 A    
N5    O13   1.301180 A    
C25   N2    1.369247 A    
O3    Cu1   1.965512 S    
C2    C11   1.455658 S    
Cu2   O6    1.961698 S    
C22   H5    1.112229 S    
C8    C9    1.415579 A    
C28   H13   1.111627 S    
O8    C4    1.291591 A    
O2    C1    1.293864 A    
C21   N5    1.469219 S    
Cu1   O5    1.960560 S    
C10   C11   1.426872 A    
O4    C2    1.297924 A    
C20   C21   1.507442 S    
O7    C4    1.293295 A    
N4    O12   1.301512 A    
O3    C2    1.289057 A    
C25   H7    1.081552 S    
C5    C6    1.393552 A    
C23   N1    1.364988 A    
C28   H8    1.110951 S    
C26   C27   1.491887 S    
Cu1   Cu2   2.686715 S    
C7    C8    1.390758 A    
N2    C26   1.363820 A    
C15   C22   1.491101 S    
C6    C7    1.386255 A    
N3    O9    1.301460 A    
C12   N3    1.438978 S    
C1    C16   1.447787 S    
O5    C3    1.293018 A    
C27   C28   1.512542 S    
C15   C16   1.395425 A    
N1    C24   1.369304 A    
C21   C22   1.522313 S    
Cu2   N1    2.018807 S    
N3    O10   1.301621 A    
H3    C13   1.082040 S    
C9    C10   1.414996 A    
C23   C28   1.490764 S    
C7    H15   1.082430 S    
C5    C10   1.419805 A    
O2    Cu2   1.960562 S    
C18   H4    1.080834 S    
C21   H9    1.110985 S    
C6    H1    1.082471 S    
O1    C1    1.291790 A    
O6    C3    1.291515 A    
