data_str_m2_o10_o18_f0_pcu.sym.149
_audit_creation_date              2012-12-10T16:45:22-0500
_audit_creation_method            fapswitch 2.2
_symmetry_space_group_name_H-M    P1
_symmetry_Int_Tables_number       1
_space_group_crystal_system       triclinic
_cell_length_a                    7.424294
_cell_length_b                    8.748598
_cell_length_c                    15.841272
_cell_angle_alpha                 94.247011
_cell_angle_beta                  75.070093
_cell_angle_gamma                 102.86491
_cell_volume                      969.081550898

loop_
_atom_site_label
_atom_site_type_symbol
_atom_type_description
_atom_site_fract_x
_atom_site_fract_y
_atom_site_fract_z
_atom_type_partial_charge
C1    C     C_R   0.546397 0.799585 0.499732 0.812292
C2    C     C_R   0.453606 0.200414 0.500264 0.812346
C3    C     C_R   0.281338 0.393304 0.077727 -0.224398
C4    C     C_R   0.720126 0.602033 0.921630 -0.224166
C5    C     C_R   0.152550 0.356557 0.025874 -0.219968
C6    C     C_R   0.849017 0.638445 0.973446 -0.220048
C7    C     C_2   0.576227 0.966305 0.489722 0.169872
C8    C     C_2   0.423778 0.033695 0.510273 0.169896
C9    C     C_R   0.384019 0.488637 0.666228 0.788716
C10   C     C_R   0.615976 0.511283 0.333762 0.788709
C11   C     C_R   0.313846 0.471075 0.761232 -0.051625
C12   C     C_R   0.686146 0.527954 0.238690 -0.051515
C13   C     C_R   0.073529 0.359421 0.887686 -0.183967
C14   C     C_R   0.927609 0.636479 0.111809 -0.183968
C15   C     C_R   0.126702 0.395081 0.799302 -0.199657
C16   C     C_R   0.873946 0.602089 0.200373 -0.199267
C17   C     C_R   0.444092 0.518132 0.813049 -0.244399
C18   C     C_R   0.555671 0.481330 0.186943 -0.244689
C19   C     C_R   0.395498 0.481730 0.902189 0.081316
C20   C     C_R   0.605136 0.515580 0.097492 0.081486
C21   C     C_R   0.206678 0.399744 0.938856 0.149364
C22   C     C_R   0.794428 0.596345 0.060648 0.149637
C23   C     C_R   0.529592 0.520705 0.955097 0.060531
C24   C     C_R   0.471341 0.475922 0.044464 0.060296
Cu1   Cu    Cu3+1 0.322120 0.483240 0.490330 0.981758
Cu2   Cu    Cu3+1 0.677880 0.516760 0.509670 0.981851
H1    H     H_    0.008646 0.293370 0.054394 0.155234
H2    H     H_    0.993367 0.700525 0.944749 0.155482
H3    H     H_    0.414293 0.422238 0.219380 0.150155
H4    H     H_    0.584482 0.579681 0.780897 0.149674
H5    H     H_    0.976912 0.638707 0.239357 0.159834
H6    H     H_    0.023935 0.358082 0.760247 0.159900
H7    H     H_    0.928827 0.297676 0.915828 0.146956
H8    H     H_    0.072758 0.697065 0.083501 0.146928
H9    H     H_    0.225528 0.353583 0.143838 0.147966
H10   H     H_    0.776610 0.640209 0.855259 0.148082
H11   H     H_    0.003938 0.614307 0.568843 0.250298
H12   H     H_    0.996062 0.385694 0.431157 0.250278
N1    N     N_2   0.945180 0.542040 0.524240 -0.206030
N2    N     N_2   0.054820 0.457960 0.475760 -0.206067
O1    O     O_R   0.384450 0.714270 0.493720 -0.534134
O2    O     O_R   0.615550 0.285730 0.506280 -0.534128
O3    O     O_R   0.684880 0.742590 0.510050 -0.596147
O4    O     O_R   0.315120 0.257410 0.489950 -0.596144
O5    O     O_R   0.265540 0.477900 0.617090 -0.591284
O6    O     O_R   0.734460 0.522100 0.382910 -0.591251
O7    O     O_R   0.565970 0.506210 0.633420 -0.587044
O8    O     O_R   0.434030 0.493790 0.366580 -0.587294
O9    O     O_3   0.758244 0.053260 0.454932 -0.753364
H13   H     H_    0.849077 0.982366 0.436889 0.337545
O10   O     O_3   0.241763 0.946740 0.545062 -0.753369
H14   H     H_    0.150931 0.017635 0.563107 0.337522

loop_
_geom_bond_atom_site_label_1
_geom_bond_atom_site_label_2
_ccdc_geom_bond_type
C10   O6    A    
C19   C23   A    
C23   C24   A    
C4    H10   S    
C14   H8    S    
C6    H2    S    
C8    O10   S    
C3    H9    S    
C14   C22   A    
C13   C21   A    
C7    C8    D    
H11   N1    S    
C18   H3    S    
C1    C7    S    
C13   H7    S    
C16   H5    S    
H12   N2    S    
C17   H4    S    
C9    C11   S    
Cu1   O8    S    
C7    O9    S    
C3    C24   A    
C10   C12   S    
Cu2   O7    S    
C2    O2    A    
C9    O5    A    
Cu1   O4    S    
C1    O1    A    
C19   C21   A    
C20   C22   A    
Cu2   O3    S    
C9    O7    A    
C18   C20   A    
C13   C15   A    
Cu1   N2    S    
C10   O8    A    
C14   C16   A    
Cu2   N1    S    
Cu2   O6    S    
Cu1   O1    S    
O10   H14   S    
C6    C22   A    
Cu1   O5    S    
C15   H6    S    
C5    C21   A    
Cu2   O2    S    
C4    C6    A    
O9    H13   S    
C12   C18   A    
N1    N2    D    
C4    C23   A    
C20   C24   A    
C11   C17   A    
C17   C19   A    
Cu1   Cu2   S    
C5    H1    S    
C11   C15   A    
C1    O3    A    
C2    C8    S    
C12   C16   A    
C2    O4    A    
C3    C5    A    
