data_str_m2_o5_o28_f0_pcu.sym.42
_audit_creation_date              2013-03-05T16:35:52-0500
_audit_creation_method            fapswitch 2.2
_symmetry_space_group_name_H-M    P1
_symmetry_Int_Tables_number       1
_space_group_crystal_system       triclinic
_cell_length_a                    23.535772
_cell_length_b                    9.099822
_cell_length_c                    7.794058
_cell_angle_alpha                 89.593045
_cell_angle_beta                  89.998943
_cell_angle_gamma                 89.999973
_cell_volume                      1669.22170745

loop_
_atom_site_label
_atom_site_type_symbol
_atom_site_description
_atom_site_fract_x
_atom_site_fract_y
_atom_site_fract_z
_atom_type_partial_charge
O1    O     O_R   0.500000 0.288390 0.642760 -0.572499
O2    O     O_R   0.500000 0.711610 0.357240 -0.572430
O3    O     O_R   0.500000 0.711610 0.642760 -0.578954
O4    O     O_R   0.500000 0.288390 0.357240 -0.578866
H1    H     H_    0.948299 0.387555 0.913863 0.195532
H2    H     H_    0.051698 0.615459 0.086707 0.195464
H3    H     H_    0.948315 0.615465 0.086712 0.195453
H4    H     H_    0.051684 0.387572 0.913867 0.195523
C1    C     C_R   0.500000 0.220037 0.500367 0.855108
C2    C     C_R   0.499999 0.779963 0.499634 0.855139
O5    O     O_R   0.417880 0.500000 0.642820 -0.574194
O6    O     O_R   0.582120 0.500000 0.357180 -0.574203
O7    O     O_R   0.582120 0.500000 0.642820 -0.574193
O8    O     O_R   0.417880 0.500000 0.357180 -0.574202
C3    C     C_R   0.209190 0.500896 0.500213 0.332089
C4    C     C_R   0.790809 0.500877 0.500201 0.332109
C5    C     C_R   0.391017 0.500018 0.500001 0.816384
C6    C     C_R   0.608983 0.500015 0.499998 0.816387
Cu1   Cu    Cu3+1 0.500000 0.500000 0.669080 1.041440
Cu2   Cu    Cu3+1 0.500000 0.500000 0.330920 1.041483
C7    C     C_R   0.299052 0.631722 0.467215 -0.078991
C8    C     C_R   0.701125 0.369133 0.532874 -0.078890
C9    C     C_R   0.298873 0.369147 0.532902 -0.078889
C10   C     C_R   0.700950 0.631712 0.467224 -0.078984
C11   C     C_R   0.328674 0.500287 0.500012 -0.178141
C12   C     C_R   0.671326 0.500277 0.500004 -0.178142
C13   C     C_R   0.880591 0.533493 0.351268 0.535393
C14   C     C_R   0.119411 0.469150 0.649259 0.535394
C15   C     C_R   0.880582 0.469130 0.649253 0.535391
C16   C     C_R   0.119411 0.533516 0.351270 0.535383
N1    N     N_R   0.852033 0.501193 0.500246 -0.464376
N2    N     N_R   0.147965 0.501214 0.500252 -0.464374
C17   C     C_R   0.940125 0.464011 0.650795 -0.023777
C18   C     C_R   0.059871 0.538951 0.349775 -0.023718
C19   C     C_R   0.940132 0.538946 0.349776 -0.023714
C20   C     C_R   0.059868 0.464025 0.650797 -0.023769
C21   C     C_R   0.970022 0.501523 0.500292 -0.012302
C22   C     C_R   0.029975 0.501526 0.500293 -0.012302
C23   C     C_R   0.970354 0.421672 0.798348 -0.180696
C24   C     C_R   0.029643 0.581380 0.202231 -0.180679
C25   C     C_R   0.970366 0.581380 0.202232 -0.180683
C26   C     C_R   0.029633 0.421681 0.798350 -0.180706
C27   C     C_1   0.499999 0.065359 0.500500 -0.109209
C28   C     C_1   0.499999 0.934642 0.499504 -0.109011
C29   C     C_R   0.239333 0.634617 0.478021 0.141757
C30   C     C_R   0.760851 0.366844 0.522281 0.141677
C31   C     C_R   0.239146 0.366863 0.522308 0.141670
C32   C     C_R   0.760667 0.634600 0.478028 0.141745
N3    N     N_1   0.500000 0.500000 0.076820 -0.036822
N4    N     N_1   0.500000 0.500000 0.923180 -0.036825
O9    O     O_2   0.851370 0.560893 0.205520 -0.498347
O10   O     O_2   0.148637 0.441561 0.794977 -0.498297
O11   O     O_2   0.851351 0.441538 0.794967 -0.498287
O12   O     O_2   0.148636 0.560945 0.205524 -0.498343
C33   C     C_3   0.208669 0.780942 0.468148 -0.772334
H5    H     H_    0.213147 0.828464 0.337243 0.247197
H6    H     H_    0.162868 0.772922 0.499498 0.228706
H7    H     H_    0.227466 0.858069 0.562298 0.224971
C34   C     C_3   0.791723 0.220836 0.532263 -0.772429
H8    H     H_    0.837523 0.229318 0.501062 0.228712
H9    H     H_    0.787251 0.173245 0.663147 0.247184
H10   H     H_    0.773085 0.143535 0.438069 0.224876
C35   C     C_3   0.208273 0.220857 0.532314 -0.772429
H11   H     H_    0.212741 0.173286 0.663208 0.247194
H12   H     H_    0.162473 0.229334 0.501105 0.228709
H13   H     H_    0.226912 0.143544 0.438136 0.224869
C36   C     C_3   0.791332 0.780922 0.468174 -0.772357
H14   H     H_    0.837131 0.772901 0.499540 0.228707
H15   H     H_    0.786859 0.828451 0.337269 0.247185
H16   H     H_    0.772527 0.858047 0.562314 0.224981
C37   C     C_1   0.330223 0.764077 0.422839 0.273969
N5    N     N_1   0.355224 0.869080 0.385914 -0.265409
C38   C     C_1   0.670129 0.236461 0.577081 0.273619
N6    N     N_1   0.645267 0.131204 0.613866 -0.265398
C39   C     C_1   0.329869 0.236477 0.577132 0.273616
N7    N     N_1   0.354732 0.131222 0.613935 -0.265402
C40   C     C_1   0.669783 0.764074 0.422875 0.273962
N8    N     N_1   0.644785 0.869084 0.385970 -0.265401

loop_
_geom_bond_atom_site_label_1
_geom_bond_atom_site_label_2
_geom_bond_distance
_ccdc_geom_bond_type
C33   H5    1.110324 S    
C35   H12   1.107599 S    
C30   C34   1.515859 S    
C38   N6    1.156776 T    
C20   C26   1.403959 A    
Cu1   Cu2   2.635639 S    
C6    C12   1.467276 S    
C3    C31   1.418231 A    
C27   C28   1.189581 T    
C4    C32   1.418056 A    
C3    N2    1.440990 S    
C40   N8    1.156762 T    
C4    N1    1.440969 S    
C16   O12   1.349726 S    
O5    Cu1   1.943570 S    
C17   C23   1.403908 A    
O7    C6    1.280171 A    
C7    C37   1.449992 S    
C18   C24   1.404052 A    
C19   C21   1.407651 A    
C21   C22   1.411038 A    
H4    C26   1.082748 S    
C31   C35   1.515867 S    
C15   C17   1.402225 A    
O2    Cu2   1.937958 S    
O3    Cu1   1.935060 S    
C9    C11   1.406190 A    
C35   H13   1.110642 S    
C34   H8    1.107595 S    
O8    C5    1.280170 A    
C13   O9    1.349662 S    
C23   C26   1.395165 A    
C7    C29   1.408303 A    
C1    C27   1.407537 S    
C34   H9    1.110399 S    
C16   C18   1.402250 A    
C13   N1    1.371686 A    
C36   H14   1.107593 S    
C10   C32   1.408276 A    
O8    Cu2   1.943563 S    
C14   N2    1.371377 A    
O1    C1    1.276085 A    
C4    C30   1.418220 A    
O7    Cu1   1.943561 S    
C13   C19   1.402271 A    
O1    Cu1   1.937959 S    
C2    C28   1.407542 S    
C17   C21   1.407805 A    
C36   H15   1.110338 S    
C39   N7    1.156811 T    
Cu2   N3    1.980469 S    
O6    Cu2   1.943568 S    
C29   C33   1.516018 S    
C24   C25   1.395135 A    
C8    C30   1.408298 A    
C33   H6    1.107585 S    
H2    C24   1.082757 S    
C3    C29   1.418072 A    
O2    C2    1.276092 A    
H1    C23   1.082792 S    
C7    C11   1.406265 A    
O5    C5    1.280170 A    
C34   H10   1.110653 S    
C18   C22   1.407698 A    
C10   C12   1.406254 A    
C9    C39   1.450046 S    
C36   H16   1.110901 S    
C5    C11   1.467283 S    
C9    C31   1.408310 A    
C20   C22   1.407760 A    
C37   N5    1.156787 T    
C15   N1    1.371341 A    
O3    C2    1.273356 A    
C16   N2    1.371685 A    
C14   O10   1.349837 S    
Cu1   N4    1.980469 S    
C15   O11   1.349852 S    
H3    C25   1.082718 S    
C32   C36   1.515981 S    
C19   C25   1.404107 A    
C35   H11   1.110399 S    
O4    Cu2   1.935061 S    
C10   C40   1.449965 S    
C14   C20   1.402231 A    
N3    N4    1.197480 T    
C8    C12   1.406180 A    
C33   H7    1.110906 S    
O6    C6    1.280172 A    
C8    C38   1.450009 S    
O4    C1    1.273363 A    
