data_str_m4_o22_o24_f0_acs.sym.118
_audit_creation_date              2012-12-11T15:08:39-0500
_audit_creation_method            fapswitch 2.2
_symmetry_space_group_name_H-M    P1
_symmetry_Int_Tables_number       1
_space_group_crystal_system       triclinic
_cell_length_a                    19.575884
_cell_length_b                    11.300187
_cell_length_c                    18.690419
_cell_angle_alpha                 90.128617
_cell_angle_beta                  90.690776
_cell_angle_gamma                 89.98818
_cell_volume                      4134.21811308

loop_
_atom_site_label
_atom_site_type_symbol
_atom_type_description
_atom_site_fract_x
_atom_site_fract_y
_atom_site_fract_z
_atom_type_partial_charge
C1    C     C_R   0.272756 0.043544 0.854030 0.531578
C2    C     C_R   0.727230 0.043394 0.145930 0.530789
C3    C     C_R   0.772757 0.543544 0.854031 0.531303
C4    C     C_R   0.227230 0.543392 0.145929 0.530607
C5    C     C_3   0.519517 0.722220 0.964599 -0.112789
C6    C     C_3   0.480301 0.722348 0.035171 -0.112461
C7    C     C_3   0.019519 0.222218 0.964598 -0.112793
C8    C     C_3   0.980303 0.222348 0.035170 -0.112467
C9    C     C_3   0.311224 0.528276 0.044462 -0.234251
C10   C     C_3   0.688768 0.528346 0.955337 -0.234140
C11   C     C_3   0.811225 0.028278 0.044463 -0.234265
C12   C     C_3   0.188768 0.028346 0.955337 -0.234121
C13   C     C_3   0.320782 0.552691 0.964085 -0.235182
C14   C     C_3   0.679195 0.552558 0.035777 -0.235647
C15   C     C_3   0.820783 0.052695 0.964087 -0.235147
C16   C     C_3   0.179195 0.052559 0.035777 -0.235684
C17   C     C_3   0.180079 0.524204 0.025025 -0.208174
C18   C     C_3   0.819944 0.524104 0.974739 -0.209020
C19   C     C_3   0.680080 0.024207 0.025027 -0.208218
C20   C     C_3   0.319944 0.024103 0.974739 -0.209032
C21   C     C_3   0.241145 0.707842 0.056786 -0.257960
C22   C     C_3   0.758909 0.707887 0.943594 -0.258165
C23   C     C_3   0.741146 0.207844 0.056788 -0.257925
C24   C     C_3   0.258910 0.207887 0.943593 -0.258156
C25   C     C_3   0.240878 0.574895 0.070294 0.065377
C26   C     C_3   0.759147 0.574985 0.929686 0.065497
C27   C     C_3   0.740879 0.074897 0.070296 0.065339
C28   C     C_3   0.259148 0.074985 0.929686 0.065560
C29   C     C_3   0.255290 0.609966 0.932195 0.056782
C30   C     C_3   0.744688 0.609735 0.067816 0.055713
C31   C     C_3   0.755291 0.109970 0.932197 0.056689
C32   C     C_3   0.244688 0.109735 0.067815 0.055705
C33   C     C_3   0.195364 0.525159 0.944338 -0.254284
C34   C     C_3   0.804625 0.524915 0.055408 -0.253945
C35   C     C_3   0.695365 0.025163 0.944341 -0.254243
C36   C     C_3   0.304624 0.024914 0.055408 -0.253922
C37   C     C_3   0.239286 0.725673 0.974753 -0.220811
C38   C     C_3   0.760683 0.725526 0.025666 -0.220753
C39   C     C_3   0.739286 0.225676 0.974755 -0.220847
C40   C     C_3   0.260684 0.225525 0.025666 -0.220761
C41   C     C_3   0.495525 0.702175 0.457756 -0.280057
C42   C     C_3   0.490053 0.701724 0.537405 -0.276704
C43   C     C_3   0.995505 0.202393 0.457898 -0.280653
C44   C     C_3   0.989670 0.201464 0.537537 -0.275764
C45   C     C_R   0.444238 0.817116 0.862271 0.539623
C46   C     C_R   0.555805 0.816910 0.137733 0.539925
C47   C     C_R   0.944240 0.317116 0.862272 0.538685
C48   C     C_R   0.055806 0.316910 0.137733 0.539949
C49   C     C_3   0.568227 0.886677 0.477526 -0.184104
C50   C     C_3   0.436137 0.913162 0.523505 -0.182349
C51   C     C_3   0.069023 0.386033 0.478251 -0.183492
C52   C     C_3   0.937091 0.413527 0.524359 -0.182953
C53   C     C_3   0.446113 0.901452 0.441212 0.010611
C54   C     C_3   0.557661 0.878329 0.559758 0.000735
C55   C     C_3   0.946944 0.402437 0.442074 0.011792
C56   C     C_3   0.058820 0.375776 0.560580 0.001216
C57   C     C_3   0.510519 0.829780 0.430572 0.068147
C58   C     C_3   0.485855 0.829924 0.568171 0.061434
C59   C     C_3   0.011045 0.329970 0.431059 0.067181
C60   C     C_3   0.986543 0.329545 0.568734 0.059467
C61   C     C_3   0.186954 0.667091 0.454711 -0.235362
C62   C     C_3   0.819878 0.648496 0.541719 -0.229952
C63   C     C_3   0.687099 0.167374 0.454686 -0.235096
C64   C     C_3   0.319727 0.148597 0.541801 -0.230835
C65   C     C_3   0.189662 0.673084 0.534564 -0.233973
C66   C     C_3   0.816537 0.654130 0.462162 -0.251364
C67   C     C_3   0.690021 0.173913 0.534532 -0.233675
C68   C     C_3   0.316544 0.153848 0.462263 -0.252474
C69   C     C_3   0.240323 0.464627 0.470020 -0.220481
C70   C     C_3   0.744499 0.459340 0.527856 -0.213323
C71   C     C_3   0.739347 0.964353 0.470555 -0.219400
C72   C     C_3   0.244331 0.959000 0.527831 -0.213174
C73   C     C_3   0.311175 0.637232 0.442300 -0.259239
C74   C     C_3   0.696324 0.651737 0.558942 -0.265978
C75   C     C_3   0.811275 0.135768 0.442524 -0.259195
C76   C     C_3   0.196251 0.151134 0.559078 -0.265570
C77   C     C_3   0.242416 0.580777 0.427378 0.067279
C78   C     C_3   0.759002 0.575216 0.571021 0.071818
C79   C     C_3   0.742218 0.080257 0.427606 0.067251
C80   C     C_3   0.258967 0.074871 0.571045 0.072679
C81   C     C_3   0.253894 0.610703 0.565835 0.067664
C82   C     C_3   0.747116 0.609154 0.433240 0.053056
C83   C     C_3   0.753788 0.110607 0.565982 0.065216
C84   C     C_3   0.247095 0.109063 0.433294 0.053049
C85   C     C_3   0.244275 0.479522 0.551736 -0.272408
C86   C     C_3   0.743292 0.477278 0.446377 -0.260489
C87   C     C_3   0.743190 0.979504 0.552370 -0.272413
C88   C     C_3   0.243138 0.977152 0.446355 -0.260205
C89   C     C_R   0.262364 0.641964 0.854939 0.531314
C90   C     C_R   0.737662 0.641723 0.145107 0.533745
C91   C     C_R   0.762365 0.141968 0.854940 0.530959
C92   C     C_R   0.237662 0.141723 0.145107 0.533754
C93   C     C_3   0.319835 0.644907 0.524618 -0.214571
C94   C     C_3   0.690207 0.668222 0.476882 -0.227980
C95   C     C_3   0.819854 0.143736 0.524776 -0.214353
C96   C     C_3   0.190317 0.168241 0.477063 -0.228763
C97   C     C_R   0.272942 0.043928 0.646301 0.538743
C98   C     C_R   0.728298 0.047704 0.352121 0.533656
C99   C     C_R   0.772911 0.544086 0.646325 0.538387
C100  C     C_R   0.228423 0.548057 0.351935 0.533383
C101  C     C_R   0.464331 0.822553 0.643528 0.560405
C102  C     C_R   0.532627 0.822928 0.354949 0.555210
C103  C     C_R   0.965007 0.322528 0.643939 0.558469
C104  C     C_R   0.032902 0.322978 0.355201 0.554847
C105  C     C_R   0.261416 0.642044 0.642796 0.534961
C106  C     C_R   0.738852 0.641780 0.356794 0.540839
C107  C     C_R   0.761475 0.142288 0.642779 0.528853
C108  C     C_R   0.238818 0.141882 0.356848 0.541317
C109  C     C_3   0.480042 0.915939 0.035672 -0.108608
C110  C     C_3   0.520220 0.915806 0.964607 -0.110263
C111  C     C_3   0.980046 0.415939 0.035671 -0.108475
C112  C     C_3   0.020224 0.415804 0.964605 -0.110468
C113  C     C_3   0.432051 0.818294 0.006047 -0.158846
C114  C     C_3   0.567982 0.817784 0.993978 -0.159860
C115  C     C_3   0.932054 0.318295 0.006046 -0.158647
C116  C     C_3   0.067985 0.317781 0.993977 -0.160025
C117  C     C_3   0.472186 0.819804 0.935862 0.059232
C118  C     C_3   0.527850 0.819524 0.064158 0.059376
C119  C     C_3   0.972188 0.319803 0.935862 0.059488
C120  C     C_3   0.027853 0.319523 0.064157 0.059346
Cr1   Cr    Cr6+3 0.229620 0.836040 0.749110 0.980993
Cr2   Cr    Cr6+3 0.770380 0.836040 0.250890 0.987786
Cr3   Cr    Cr6+3 0.729620 0.336040 0.749110 0.982787
Cr4   Cr    Cr6+3 0.270380 0.336040 0.250890 0.987461
Cr5   Cr    Cr6+3 0.387630 0.990680 0.750730 0.983026
Cr6   Cr    Cr6+3 0.612370 0.990680 0.249270 0.985004
Cr7   Cr    Cr6+3 0.887630 0.490680 0.750730 0.983720
Cr8   Cr    Cr6+3 0.112370 0.490680 0.249270 0.985655
Cr9   Cr    Cr6+3 0.386020 0.676590 0.749210 0.988975
Cr10  Cr    Cr6+3 0.613980 0.676590 0.250790 0.990486
Cr11  Cr    Cr6+3 0.886020 0.176590 0.749210 0.989380
Cr12  Cr    Cr6+3 0.113980 0.176590 0.250790 0.990682
H1    H     H_    0.377665 0.805195 0.016890 0.091260
H2    H     H_    0.622346 0.804197 0.983200 0.091120
H3    H     H_    0.877668 0.305197 0.016889 0.091228
H4    H     H_    0.122348 0.304192 0.983199 0.091129
H5    H     H_    0.196273 0.752012 0.081253 0.126424
H6    H     H_    0.803827 0.752012 0.919329 0.126160
H7    H     H_    0.696275 0.252014 0.081256 0.126422
H8    H     H_    0.303828 0.252012 0.919328 0.126058
H9    H     H_    0.287650 0.746297 0.081712 0.103808
H10   H     H_    0.712458 0.746436 0.918728 0.102521
H11   H     H_    0.787652 0.246298 0.081714 0.103850
H12   H     H_    0.212459 0.246435 0.918726 0.102602
H13   H     H_    0.274144 0.795121 0.959006 0.109248
H14   H     H_    0.725808 0.794948 0.041684 0.109133
H15   H     H_    0.774144 0.295125 0.959008 0.109235
H16   H     H_    0.225809 0.294949 0.041684 0.109143
H17   H     H_    0.186411 0.752293 0.960122 0.131574
H18   H     H_    0.813558 0.752029 0.040433 0.131920
H19   H     H_    0.686412 0.252295 0.960125 0.131457
H20   H     H_    0.313558 0.252028 0.040433 0.131901
H21   H     H_    0.633716 0.079596 0.033484 0.136743
H22   H     H_    0.366313 0.079483 0.966499 0.136558
H23   H     H_    0.133715 0.579593 0.033482 0.136786
H24   H     H_    0.866313 0.579485 0.966500 0.136696
H25   H     H_    0.149258 0.554454 0.913938 0.121494
H26   H     H_    0.850730 0.554088 0.085921 0.124573
H27   H     H_    0.649258 0.054457 0.913941 0.121651
H28   H     H_    0.350730 0.054088 0.085921 0.124540
H29   H     H_    0.534231 0.635493 0.443453 0.142602
H30   H     H_    0.448578 0.645334 0.552991 0.143419
H31   H     H_    0.034112 0.135501 0.443606 0.142554
H32   H     H_    0.947514 0.146609 0.552737 0.143690
H33   H     H_    0.448153 0.668624 0.432685 0.115865
H34   H     H_    0.534846 0.654076 0.560584 0.111800
H35   H     H_    0.948063 0.169509 0.432529 0.116164
H36   H     H_    0.033724 0.151859 0.560802 0.112100
H37   H     H_    0.608884 0.830063 0.465250 0.072812
H38   H     H_    0.383016 0.899579 0.537498 0.080945
H39   H     H_    0.109686 0.330235 0.465059 0.071721
H40   H     H_    0.883887 0.399507 0.538233 0.082728
H41   H     H_    0.595376 0.814445 0.581803 0.126139
H42   H     H_    0.402195 0.849542 0.420292 0.103494
H43   H     H_    0.095471 0.309271 0.581406 0.131427
H44   H     H_    0.902713 0.351433 0.420915 0.102958
H45   H     H_    0.464930 0.996585 0.065438 0.113274
H46   H     H_    0.535472 0.996334 0.935038 0.111092
H47   H     H_    0.964935 0.496586 0.065436 0.113305
H48   H     H_    0.035477 0.496331 0.935035 0.111151
H49   H     H_    0.447207 0.003473 0.539581 0.139533
H50   H     H_    0.580793 0.976964 0.461069 0.146431
H51   H     H_    0.948297 0.503667 0.540742 0.135921
H52   H     H_    0.081593 0.476571 0.462490 0.147985
H53   H     H_    0.134353 0.641326 0.440048 0.126784
H54   H     H_    0.870160 0.615976 0.557615 0.140060
H55   H     H_    0.634332 0.142031 0.440139 0.126176
H56   H     H_    0.370155 0.117029 0.557962 0.139358
H57   H     H_    0.194641 0.754874 0.430798 0.115663
H58   H     H_    0.818727 0.739464 0.564111 0.115305
H59   H     H_    0.695165 0.254857 0.430517 0.115855
H60   H     H_    0.318182 0.239646 0.564000 0.115367
H61   H     H_    0.184291 0.763038 0.551894 0.130198
H62   H     H_    0.831944 0.743622 0.445322 0.130121
H63   H     H_    0.685198 0.263860 0.551734 0.131126
H64   H     H_    0.332153 0.243159 0.445273 0.130157
H65   H     H_    0.143410 0.632554 0.555763 0.157547
H66   H     H_    0.853900 0.595275 0.441259 0.187228
H67   H     H_    0.643751 0.134349 0.556010 0.154182
H68   H     H_    0.353839 0.094620 0.441803 0.188568
H69   H     H_    0.690473 0.931552 0.455541 0.113405
H70   H     H_    0.277136 0.885208 0.543841 0.113969
H71   H     H_    0.191565 0.431078 0.454964 0.113484
H72   H     H_    0.777584 0.385776 0.543822 0.113823
H73   H     H_    0.696143 0.946576 0.577306 0.140870
H74   H     H_    0.286224 0.929974 0.420818 0.106375
H75   H     H_    0.197472 0.445585 0.575911 0.147394
H76   H     H_    0.786413 0.430083 0.420886 0.105774
H77   H     H_    0.351482 0.580581 0.418743 0.114919
H78   H     H_    0.649724 0.609084 0.580381 0.107675
H79   H     H_    0.851457 0.078509 0.419211 0.115336
H80   H     H_    0.149622 0.108223 0.580295 0.108112
H81   H     H_    0.313566 0.725932 0.417459 0.097692
H82   H     H_    0.702460 0.737827 0.587013 0.099249
H83   H     H_    0.814248 0.224401 0.417576 0.097698
H84   H     H_    0.202365 0.236991 0.587435 0.096940
H85   H     H_    0.534852 0.640990 0.935522 0.122145
H86   H     H_    0.464844 0.641236 0.064058 0.122096
H87   H     H_    0.034853 0.140987 0.935522 0.122304
H88   H     H_    0.964845 0.141237 0.064058 0.122124
H89   H     H_    0.340218 0.730270 0.541778 0.108736
H90   H     H_    0.700081 0.758364 0.466654 0.115580
H91   H     H_    0.840276 0.229435 0.541581 0.109093
H92   H     H_    0.200785 0.258371 0.467409 0.116050
H93   H     H_    0.357017 0.575285 0.539020 0.122512
H94   H     H_    0.639939 0.638663 0.457337 0.129283
H95   H     H_    0.856693 0.073615 0.539428 0.122726
H96   H     H_    0.139951 0.139531 0.457304 0.129417
H97   H     H_    0.281575 0.405469 0.452676 0.132547
H98   H     H_    0.691466 0.436430 0.541662 0.122833
H99   H     H_    0.780298 0.904540 0.453340 0.131827
H100  H     H_    0.191326 0.935861 0.541610 0.122544
H101  H     H_    0.287464 0.428213 0.574879 0.103291
H102  H     H_    0.694664 0.443883 0.422693 0.116616
H103  H     H_    0.786159 0.927642 0.575515 0.104570
H104  H     H_    0.194488 0.943929 0.422635 0.116710
H105  H     H_    0.316904 0.433906 0.055106 0.131507
H106  H     H_    0.683071 0.433971 0.944342 0.132096
H107  H     H_    0.816904 0.933907 0.055106 0.131509
H108  H     H_    0.183071 0.933971 0.944342 0.132153
H109  H     H_    0.352892 0.571713 0.075680 0.110054
H110  H     H_    0.647111 0.571921 0.924276 0.109514
H111  H     H_    0.852893 0.071713 0.075682 0.110091
H112  H     H_    0.147111 0.071921 0.924275 0.109669
H113  H     H_    0.365169 0.612313 0.956719 0.135588
H114  H     H_    0.634795 0.612161 0.043359 0.135492
H115  H     H_    0.865170 0.112317 0.956721 0.135647
H116  H     H_    0.134795 0.112161 0.043359 0.135493
H117  H     H_    0.332348 0.468506 0.935757 0.116725
H118  H     H_    0.667654 0.468308 0.063810 0.116742
H119  H     H_    0.832350 0.968511 0.935758 0.116811
H120  H     H_    0.167654 0.968308 0.063810 0.116760
H121  H     H_    0.664945 0.938737 0.045730 0.100152
H122  H     H_    0.335088 0.938644 0.953678 0.100457
H123  H     H_    0.164945 0.438735 0.045729 0.100149
H124  H     H_    0.835089 0.438645 0.953678 0.100529
H125  H     H_    0.708557 0.936115 0.925056 0.109525
H126  H     H_    0.291398 0.935855 0.074361 0.110525
H127  H     H_    0.208556 0.436112 0.925052 0.109514
H128  H     H_    0.791399 0.435855 0.074361 0.110548
O1    O     O_R   0.214130 0.708570 0.829890 -0.533544
O2    O     O_R   0.785870 0.708570 0.170110 -0.528825
O3    O     O_R   0.714130 0.208570 0.829890 -0.532645
O4    O     O_R   0.285870 0.208570 0.170110 -0.528831
O5    O     O_R   0.446360 0.919990 0.675230 -0.501366
O6    O     O_R   0.553640 0.919990 0.324770 -0.500309
O7    O     O_R   0.946360 0.419990 0.675230 -0.510320
O8    O     O_R   0.053640 0.419990 0.324770 -0.499092
O9    O     O_R   0.457170 0.717300 0.668380 -0.538901
O10   O     O_R   0.542830 0.717300 0.331620 -0.537686
O11   O     O_R   0.957170 0.217300 0.668380 -0.536512
O12   O     O_R   0.042830 0.217300 0.331620 -0.537400
O13   O     O_R   0.320870 0.624890 0.673130 -0.511332
O14   O     O_R   0.679130 0.624890 0.326870 -0.512057
O15   O     O_R   0.820870 0.124890 0.673130 -0.511030
O16   O     O_R   0.179130 0.124890 0.326870 -0.512165
O17   O     O_3   0.334430 0.834430 0.749680 -0.285410
O18   O     O_3   0.665570 0.834430 0.250320 -0.284910
O19   O     O_3   0.834430 0.334430 0.749680 -0.284599
O20   O     O_3   0.165570 0.334430 0.250320 -0.285017
O21   O     O_R   0.236050 0.959150 0.825270 -0.513405
O22   O     O_R   0.763950 0.959150 0.174730 -0.514427
O23   O     O_R   0.736050 0.459150 0.825270 -0.513718
O24   O     O_R   0.263950 0.459150 0.174730 -0.514525
O25   O     O_R   0.332100 0.076650 0.832310 -0.533129
O26   O     O_R   0.667900 0.076650 0.167690 -0.533500
O27   O     O_R   0.832100 0.576650 0.832310 -0.532345
O28   O     O_R   0.167900 0.576650 0.167690 -0.533589
O29   O     O_R   0.446500 0.918620 0.826240 -0.511558
O30   O     O_R   0.553500 0.918620 0.173760 -0.506455
O31   O     O_R   0.946500 0.418620 0.826240 -0.513617
O32   O     O_R   0.053500 0.418620 0.173760 -0.506388
O33   O     O_R   0.457310 0.715830 0.831280 -0.525497
O34   O     O_R   0.542690 0.715830 0.168720 -0.524821
O35   O     O_R   0.957310 0.215830 0.831280 -0.525538
O36   O     O_R   0.042690 0.215830 0.168720 -0.524681
O37   O     O_R   0.321000 0.623520 0.824130 -0.518252
O38   O     O_R   0.679000 0.623520 0.175870 -0.518992
O39   O     O_R   0.821000 0.123520 0.824130 -0.518405
O40   O     O_R   0.179000 0.123520 0.175870 -0.518993
O41   O     O_R   0.213990 0.710040 0.667000 -0.544181
O42   O     O_R   0.786010 0.710040 0.333000 -0.531950
O43   O     O_R   0.713990 0.210040 0.667000 -0.540669
O44   O     O_R   0.286010 0.210040 0.333000 -0.531711
O45   O     O_R   0.235920 0.960520 0.674260 -0.511687
O46   O     O_R   0.764080 0.960520 0.325740 -0.512431
O47   O     O_R   0.735920 0.460520 0.674260 -0.511623
O48   O     O_R   0.264080 0.460520 0.325740 -0.512717
O49   O     O_R   0.331960 0.078120 0.669410 -0.537346
O50   O     O_R   0.668040 0.078120 0.330590 -0.543709
O51   O     O_R   0.831960 0.578120 0.669410 -0.536466
O52   O     O_R   0.168040 0.578120 0.330590 -0.543321
N1    N     N_2   0.446201 0.011190 0.399527 -0.539943
H129  H     H_    0.430997 0.002941 0.346686 0.263622
C121  C     C_3   0.486582 0.116023 0.415268 -0.308015
H130  H     H_    0.456582 0.195695 0.400286 0.130247
H131  H     H_    0.532934 0.116755 0.382047 0.178246
H132  H     H_    0.500487 0.124571 0.472340 0.115909
N2    N     N_2   0.568066 0.990021 0.597561 -0.558556
H133  H     H_    0.541183 0.064021 0.582139 0.240723
C122  C     C_3   0.589840 0.987003 0.672221 -0.279198
H134  H     H_    0.555585 0.043064 0.704929 0.165897
H135  H     H_    0.642146 0.022510 0.677740 0.156525
H136  H     H_    0.589873 0.895773 0.694263 0.146340
N3    N     N_2   0.947629 0.512842 0.401115 -0.539552
H137  H     H_    0.932162 0.506001 0.348282 0.263470
C123  C     C_3   0.988126 0.617124 0.417810 -0.308727
H138  H     H_    0.957613 0.697349 0.405299 0.129184
H139  H     H_    0.033453 0.619706 0.383091 0.176960
H140  H     H_    0.003751 0.622713 0.474637 0.119391
N4    N     N_2   0.071459 0.485560 0.599950 -0.559224
H141  H     H_    0.039546 0.556531 0.591484 0.247491
C124  C     C_3   0.099757 0.477782 0.672252 -0.304760
H142  H     H_    0.120648 0.564890 0.688331 0.172612
H143  H     H_    0.141224 0.411085 0.676084 0.122268
H144  H     H_    0.060564 0.454536 0.711731 0.186423

loop_
_geom_bond_atom_site_label_1
_geom_bond_atom_site_label_2
_ccdc_geom_bond_type
C82   C94   S    
C55   C59   S    
C35   H125  S    
C83   C87   S    
C73   C93   S    
C47   O31   A    
C42   C58   S    
C29   C89   S    
C16   H120  S    
C75   C95   S    
C48   C120  S    
C124  H142  S    
C24   H8    S    
C57   C102  S    
Cr6   O18   S    
C55   N3    S    
Cr7   O7    S    
C85   H101  S    
C59   C104  S    
C63   H55   S    
Cr1   O17   S    
C5    C6    S    
Cr10  O10   S    
Cr3   O19   S    
C110  H46   S    
Cr12  O16   S    
C29   C33   S    
C87   H103  S    
C30   C38   S    
C77   C100  S    
C44   H36   S    
C9    C13   S    
C87   H73   S    
C11   C15   S    
C5    H85   S    
C12   C16   S    
C98   O50   A    
C99   O47   A    
C103  O7    A    
C60   C103  S    
C107  O15   A    
C83   C107  S    
C113  H1    S    
C74   H82   S    
C111  H47   S    
C23   H11   S    
C66   H62   S    
C109  C118  S    
C16   H116  S    
C70   H72   S    
Cr5   O25   S    
C50   C53   S    
C89   O37   A    
C7    C119  S    
Cr8   O28   S    
C62   H58   S    
C62   C66   S    
Cr2   O2    S    
C20   C28   S    
C18   H124  S    
Cr12  O36   S    
C43   C44   S    
C66   C82   S    
Cr9   O33   S    
C58   C101  S    
C105  O41   A    
C92   O4    A    
C107  O43   A    
C116  H4    S    
C108  O44   A    
Cr4   O4    S    
C19   H21   S    
C89   O1    A    
Cr5   O49   S    
C17   H23   S    
C91   O3    A    
C124  H144  S    
Cr1   O45   S    
Cr5   O5    S    
Cr2   O42   S    
C3    C26   S    
C84   C88   S    
Cr12  O12   S    
C13   H117  S    
Cr10  O34   S    
C17   C25   S    
C19   C35   S    
C76   C96   S    
C1    O21   A    
C32   C92   S    
C75   H83   S    
C95   H95   S    
C21   H9    S    
C61   C65   S    
C12   H108  S    
C122  H134  S    
C78   C99   S    
C45   O29   A    
C75   C79   S    
Cr5   O29   S    
C22   C38   S    
N2    C122  S    
C67   C83   S    
C80   C97   S    
C11   H111  S    
C69   C77   S    
C111  C112  S    
C9    H109  S    
C52   H40   S    
C71   C79   S    
C4    C25   S    
Cr4   O20   S    
C7    C8    S    
Cr10  O38   S    
C8    H88   S    
C96   H96   S    
C73   H77   S    
C24   H12   S    
C100  O52   A    
N1    C121  S    
C39   H19   S    
C49   C57   S    
C40   H20   S    
Cr11  O11   S    
Cr9   O37   S    
N3    C123  S    
C38   H14   S    
C52   C60   S    
C19   H121  S    
C61   C77   S    
C12   H112  S    
C11   C27   S    
C93   H93   S    
C36   H126  S    
C47   O35   A    
C110  C114  S    
C48   O36   A    
C43   C59   S    
C62   H54   S    
C76   H80   S    
C10   H106  S    
C6    H86   S    
C88   H74   S    
C22   H10   S    
Cr1   O21   S    
Cr2   O18   S    
Cr4   O24   S    
Cr12  O20   S    
C81   C105  S    
C30   C34   S    
C10   C14   S    
C123  H139  S    
C101  O9    A    
C95   H91   S    
C116  C120  S    
C103  O11   A    
C7    C116  S    
C69   H97   S    
N4    C124  S    
C122  H136  S    
C33   H127  S    
C61   H53   S    
C114  H2    S    
C34   H128  S    
C66   H66   S    
C64   H56   S    
C113  C117  S    
C115  C119  S    
Cr6   O26   S    
C9    H105  S    
Cr4   O48   S    
C112  C116  S    
C69   C85   S    
C85   H75   S    
C72   H70   S    
C45   C117  S    
C21   C25   S    
C121  H132  S    
C71   H99   S    
Cr12  O40   S    
C62   C78   S    
C76   C80   S    
C32   C36   S    
C15   C31   S    
C43   H35   S    
C16   C32   S    
C31   C91   S    
C105  O13   A    
C106  O42   A    
C72   C80   S    
C115  H3    S    
C4    O24   A    
C82   C106  S    
C90   O2    A    
C55   H44   S    
Cr6   O50   S    
Cr8   O32   S    
C94   H90   S    
Cr6   O6    S    
C46   O34   A    
Cr7   O19   S    
Cr8   O20   S    
C81   C85   S    
C13   H113  S    
C41   H29   S    
C41   C42   S    
C74   C94   S    
Cr9   O13   S    
C18   C26   S    
C30   C90   S    
Cr11  O39   S    
C1    O25   A    
C9    C25   S    
C2    O22   A    
C3    O27   A    
C75   H79   S    
C86   H102  S    
C12   C28   S    
C13   C29   S    
C67   H67   S    
C98   O46   A    
C46   C118  S    
C73   C77   S    
C64   H60   S    
Cr6   O30   S    
C106  O14   A    
C1    C28   S    
C2    C27   S    
Cr10  O14   S    
C72   H100  S    
Cr11  O19   S    
C61   H57   S    
C52   C55   S    
C121  H130  S    
C64   C80   S    
C73   H81   S    
C17   C33   S    
C110  C117  S    
C38   H18   S    
C33   H25   S    
C65   H61   S    
C124  H143  S    
C40   H16   S    
C68   C84   S    
C24   C28   S    
C51   H52   S    
C86   H76   S    
C53   C57   S    
C82   C86   S    
C56   C60   S    
C50   C58   S    
N4    H141  S    
C104  O12   A    
C48   O32   A    
Cr7   O27   S    
C76   H84   S    
C65   C81   S    
C91   O39   A    
C42   H30   S    
Cr8   O8    S    
C50   H38   S    
C20   H122  S    
Cr2   O22   S    
C71   C87   S    
C92   O40   A    
C31   C35   S    
C54   N2    S    
C64   C68   S    
C101  O5    A    
C102  O10   A    
C97   O45   A    
C37   H17   S    
C108  O16   A    
C112  C119  S    
C14   H118  S    
C22   H6    S    
C41   C57   S    
C123  H138  S    
C109  C110  S    
C49   H37   S    
N1    H129  S    
Cr5   O17   S    
C44   C60   S    
C63   H59   S    
C84   C108  S    
N3    H137  S    
C94   H94   S    
N2    H133  S    
C20   C36   S    
C109  H45   S    
C21   C37   S    
C22   C26   S    
C29   C37   S    
C44   H32   S    
C42   H34   S    
C43   H31   S    
C97   O49   A    
C5    C114  S    
C70   C78   S    
C79   C98   S    
C99   O51   A    
C10   H110  S    
C52   H51   S    
C63   C79   S    
C4    O28   A    
C20   H22   S    
C74   H78   S    
C54   H41   S    
C23   H7    S    
C46   O30   A    
C11   H107  S    
C49   C54   S    
Cr3   O47   S    
C51   C56   S    
C84   C96   S    
C8    C115  S    
Cr1   O1    S    
Cr3   O3    S    
C122  H135  S    
C41   H33   S    
Cr9   O17   S    
C23   C27   S    
C19   C27   S    
C74   C78   S    
C109  C113  S    
C2    O26   A    
C7    H87   S    
C10   C26   S    
C47   C119  S    
C14   C30   S    
C67   H63   S    
C72   C88   S    
C53   H42   S    
C88   H104  S    
C63   C67   S    
C121  H131  S    
C56   H43   S    
C68   H64   S    
Cr7   O31   S    
C96   H92   S    
Cr1   O41   S    
C21   H5    S    
C5    C117  S    
C111  C120  S    
Cr10  O18   S    
Cr3   O43   S    
C70   H98   S    
C6    C113  S    
Cr11  O15   S    
Cr4   O44   S    
C81   C93   S    
C83   C95   S    
Cr11  O35   S    
C18   C34   S    
C114  C118  S    
C65   H65   S    
C34   H26   S    
C69   H71   S    
C50   H49   S    
C51   C59   S    
C70   C86   S    
C8    C120  S    
Cr2   O46   S    
C54   C58   S    
C71   H69   S    
C17   H123  S    
C45   O33   A    
C104  O8    A    
C18   H24   S    
C15   H115  S    
C123  H140  S    
C111  C115  S    
Cr7   O51   S    
Cr8   O52   S    
C112  H48   S    
C68   H68   S    
C51   H39   S    
C56   N4    S    
Cr3   O23   S    
C90   O38   A    
C15   H119  S    
C23   C39   S    
C3    O23   A    
C24   C40   S    
C31   C39   S    
C32   C40   S    
C35   H27   S    
Cr9   O9    S    
C36   H28   S    
C49   H50   S    
C100  O48   A    
C102  O6    A    
C39   H15   S    
C53   N1    S    
C93   H89   S    
C37   H13   S    
C6    C118  S    
C14   H114  S    
