data_str_m3_o14_o29_f0_pcu.sym.19
_audit_creation_date              2012-12-10T17:54:20-0500
_audit_creation_method            fapswitch 2.2
_symmetry_space_group_name_H-M    P1
_symmetry_Int_Tables_number       1
_space_group_crystal_system       triclinic
_cell_length_a                    26.669761
_cell_length_b                    10.637781
_cell_length_c                    9.926181
_cell_angle_alpha                 90.200458
_cell_angle_beta                  88.31656
_cell_angle_gamma                 89.281678
_cell_volume                      2814.67004953

loop_
_atom_site_label
_atom_site_type_symbol
_atom_type_description
_atom_site_fract_x
_atom_site_fract_y
_atom_site_fract_z
_atom_type_partial_charge
C1    C     C_R   0.502925 0.260628 0.499900 0.860205
C2    C     C_R   0.977473 0.668662 0.271318 -0.006301
C3    C     C_R   0.971447 0.820744 0.457460 0.017303
C4    C     C_R   0.405403 0.500562 0.501419 1.012983
C5    C     C_R   0.948187 0.736727 0.367914 0.041687
C6    C     C_R   0.955012 0.571785 0.199752 -0.196084
C7    C     C_R   0.903248 0.549407 0.208360 0.163061
C8    C     C_R   0.873443 0.618916 0.305494 -0.083984
C9    C     C_R   0.896159 0.715153 0.381363 -0.081430
C10   C     C_R   0.867216 0.787915 0.474448 -0.060363
C11   C     C_R   0.816849 0.758880 0.498453 0.534180
C12   C     C_R   0.265238 0.476740 0.473968 0.111088
C13   C     C_R   0.822301 0.592944 0.335917 0.485166
C14   C     C_R   0.734843 0.520735 0.547804 0.099305
C15   C     C_R   0.685143 0.476060 0.556089 0.463944
C16   C     C_R   0.502736 0.739159 0.500027 0.918907
C17   C     C_R   0.658053 0.651348 0.417795 -0.309940
C18   C     C_R   0.707049 0.691578 0.403427 -0.167223
C19   C     C_R   0.745593 0.626066 0.465456 0.239657
C20   C     C_R   0.029813 0.689840 0.260056 0.048262
C21   C     C_R   0.052844 0.740142 0.374458 0.051655
C22   C     C_R   0.023764 0.804611 0.474702 -0.015131
C23   C     C_R   0.253193 0.606089 0.459633 0.144064
C24   C     C_R   0.060835 0.657210 0.144951 0.123549
C25   C     C_R   0.097105 0.809499 0.617589 0.565504
C26   C     C_R   0.940684 0.908609 0.531781 0.145574
C27   C     C_R   0.888946 0.888835 0.541037 -0.166294
C28   C     C_R   0.594621 0.503985 0.498010 0.889512
C29   C     C_R   0.046570 0.836669 0.595693 -0.351794
C30   C     C_R   0.573450 0.128068 0.673428 -0.222940
C31   C     C_R   0.603873 0.061893 0.760991 -0.185570
C32   C     C_R   0.604347 0.930720 0.760882 0.232645
C33   C     C_R   0.573963 0.866761 0.671464 -0.199627
C34   C     C_R   0.104486 0.718459 0.392197 -0.136122
C35   C     C_R   0.540780 0.932700 0.586919 0.042137
C36   C     C_R   0.540634 0.064521 0.587475 0.088021
C37   C     C_R   0.508054 0.128024 0.499505 -0.091758
C38   C     C_R   0.478463 0.064350 0.409355 -0.227737
C39   C     C_R   0.478532 0.936456 0.409101 -0.174053
C40   C     C_R   0.184173 0.633607 0.309470 0.546820
C41   C     C_R   0.508008 0.871246 0.499428 -0.108334
C42   C     C_R   0.421841 0.382004 0.135787 -0.100309
C43   C     C_R   0.376692 0.365598 0.070436 -0.203344
C44   C     C_R   0.368434 0.430362 0.950834 -0.207449
C45   C     C_R   0.133903 0.664064 0.287014 -0.039815
C46   C     C_R   0.407655 0.498411 0.888851 0.206726
C47   C     C_R   0.456624 0.478532 0.934771 0.108598
C48   C     C_R   0.460140 0.452565 0.073774 0.041683
C49   C     C_R   0.541405 0.534953 0.068691 0.565367
C50   C     C_R   0.541600 0.529690 0.924124 -0.251014
C51   C     C_R   0.175918 0.706414 0.536886 0.528997
C52   C     C_R   0.290125 0.696929 0.470271 -0.244922
C53   C     C_R   0.339807 0.662683 0.495093 0.438814
C54   C     C_R   0.315488 0.441225 0.496647 0.391703
C55   C     C_3   0.333547 0.278670 0.636440 -0.359051
C56   C     C_R   0.112626 0.642321 0.161829 -0.185973
C57   C     C_3   0.122786 0.965457 0.755935 -0.277203
C58   C     C_3   0.959600 0.034175 0.581857 -0.421660
C59   C     C_3   0.949859 0.053977 0.733433 -0.888278
C60   C     C_3   0.224978 0.377157 0.469465 -0.338217
C61   C     C_3   0.229718 0.296152 0.342057 -0.787350
C62   C     C_3   0.636468 0.858790 0.857592 -0.460425
C63   C     C_3   0.678169 0.784426 0.783698 -0.804959
C64   C     C_3   0.627291 0.521434 0.089275 -0.320895
C65   C     C_3   0.393792 0.626969 0.835298 -0.369350
C66   C     C_3   0.379949 0.718251 0.950191 -0.870313
C67   C     C_R   0.126174 0.746383 0.516681 -0.136968
C68   C     C_3   0.676809 0.265547 0.532509 -0.348482
C69   C     C_3   0.775693 0.455584 0.625848 -0.355148
C70   C     C_3   0.771341 0.489860 0.775195 -0.829726
C71   C     C_3   0.880593 0.451295 0.115547 -0.307692
C72   C     C_3   0.914688 0.399615 0.000732 -0.969332
C73   C     C_3   0.042218 0.652158 0.001076 -0.385829
C74   C     C_3   0.011663 0.768881 0.964355 -0.813462
C75   C     C_3   0.363272 0.858247 0.575694 -0.352594
C76   C     C_R   0.352426 0.534287 0.502257 -0.307865
C77   C     C_R   0.646898 0.542546 0.491089 -0.186056
H1    H     H_    0.279745 0.794603 0.456370 0.165418
H2    H     H_    0.453869 0.888205 0.341604 0.193625
H3    H     H_    0.426813 0.336572 0.231272 0.186939
H4    H     H_    0.346628 0.313520 0.118932 0.168252
H5    H     H_    0.330575 0.438663 0.915019 0.154631
H6    H     H_    0.574416 0.557256 0.865764 0.172788
H7    H     H_    0.136277 0.611258 0.077186 0.193667
H8    H     H_    0.978856 0.505407 0.146599 0.162130
H9    H     H_    0.336414 0.174617 0.640116 0.193129
H10   H     H_    0.300332 0.307615 0.700370 0.154277
H11   H     H_    0.368319 0.316327 0.679005 0.186569
H12   H     H_    0.628682 0.704143 0.369147 0.207420
H13   H     H_    0.086022 0.015892 0.763151 0.140186
H14   H     H_    0.146407 0.003775 0.671626 0.156479
H15   H     H_    0.142427 0.983726 0.850849 0.198101
H16   H     H_    0.909550 0.075090 0.755029 0.260124
H17   H     H_    0.960606 0.969804 0.791941 0.260879
H18   H     H_    0.971845 0.135193 0.768375 0.251973
H19   H     H_    0.999924 0.047399 0.556263 0.209794
H20   H     H_    0.939784 0.110431 0.527635 0.209395
H21   H     H_    0.229044 0.355396 0.250495 0.285339
H22   H     H_    0.264943 0.239603 0.340046 0.283018
H23   H     H_    0.865463 0.953360 0.600212 0.195584
H24   H     H_    0.197753 0.230372 0.339573 0.223542
H25   H     H_    0.227379 0.315782 0.559338 0.200426
H26   H     H_    0.186794 0.419851 0.474477 0.187110
H27   H     H_    0.662238 0.708333 0.722171 0.250892
H28   H     H_    0.700542 0.847681 0.717443 0.305600
H29   H     H_    0.703263 0.740947 0.858162 0.249539
H30   H     H_    0.653921 0.923931 0.929909 0.213283
H31   H     H_    0.612534 0.793405 0.917382 0.222470
H32   H     H_    0.642402 0.569440 0.997917 0.164039
H33   H     H_    0.622817 0.418957 0.069894 0.155735
H34   H     H_    0.715392 0.772547 0.341238 0.162393
H35   H     H_    0.655749 0.530405 0.167686 0.218308
H36   H     H_    0.346487 0.685088 0.008401 0.287588
H37   H     H_    0.411812 0.727556 0.019050 0.263075
H38   H     H_    0.371141 0.812272 0.908136 0.245036
H39   H     H_    0.425604 0.668492 0.777475 0.263794
H40   H     H_    0.361227 0.619307 0.768877 0.208712
H41   H     H_    0.677815 0.176194 0.589456 0.212131
H42   H     H_    0.711302 0.266649 0.466351 0.169854
H43   H     H_    0.642992 0.265333 0.469655 0.158798
H44   H     H_    0.776076 0.592683 0.788657 0.266950
H45   H     H_    0.024743 0.874736 0.679024 0.186655
H46   H     H_    0.734301 0.462186 0.818859 0.279596
H47   H     H_    0.801181 0.440027 0.830519 0.245843
H48   H     H_    0.773387 0.352077 0.613788 0.225373
H49   H     H_    0.813703 0.481778 0.588299 0.198112
H50   H     H_    0.930847 0.477672 0.940126 0.273387
H51   H     H_    0.945070 0.339395 0.040843 0.259026
H52   H     H_    0.892308 0.340353 0.933126 0.263537
H53   H     H_    0.867598 0.370140 0.176846 0.239477
H54   H     H_    0.848034 0.495400 0.065746 0.243338
H55   H     H_    0.978335 0.782299 0.032333 0.258219
H56   H     H_    0.453766 0.113865 0.342073 0.161995
H57   H     H_    0.997933 0.757231 0.860818 0.240613
H58   H     H_    0.035344 0.853896 0.968355 0.268641
H59   H     H_    0.074560 0.646784 0.927870 0.238117
H60   H     H_    0.020848 0.566433 0.980428 0.184060
H61   H     H_    0.338702 0.835597 0.664800 0.174125
H62   H     H_    0.344625 0.927950 0.510192 0.184704
H63   H     H_    0.397373 0.902746 0.614552 0.199511
H64   H     H_    0.576925 0.228996 0.673366 0.202773
H65   H     H_    0.627817 0.113578 0.827242 0.154903
H66   H     H_    0.577229 0.765601 0.668985 0.164529
N1    N     N_R   0.203056 0.648241 0.434969 -0.338115
N2    N     N_R   0.796239 0.660393 0.433016 -0.331842
N3    N     N_R   0.499540 0.498800 0.142780 -0.154332
N4    N     N_R   0.499520 0.498720 0.857170 -0.142408
O1    O     O_R   0.500000 0.316780 0.614690 -0.616681
O2    O     O_R   0.571250 0.499990 0.614680 -0.619366
O3    O     O_R   0.571240 0.499970 0.385350 -0.562963
O4    O     O_2   0.213852 0.588525 0.207563 -0.575481
O5    O     O_3   0.328969 0.315211 0.500861 -0.616871
O6    O     O_3   0.116498 0.834601 0.742540 -0.565442
O7    O     O_3   0.582230 0.580220 0.136367 -0.590392
O8    O     O_3   0.674492 0.366584 0.625333 -0.620816
O9    O     O_3   0.378023 0.750574 0.499978 -0.609150
O10   O     O_2   0.798553 0.499408 0.273004 -0.613680
O11   O     O_2   0.197047 0.723623 0.657313 -0.512961
O12   O     O_2   0.788880 0.826394 0.588841 -0.599760
O13   O     O_R   0.500000 0.316750 0.385360 -0.638794
O14   O     O_R   0.428760 0.500030 0.614650 -0.642625
O15   O     O_R   0.428750 0.500010 0.385320 -0.606082
O16   O     O_R   0.500000 0.683250 0.614640 -0.640640
O17   O     O_R   0.500000 0.683220 0.385310 -0.587757
Zn1   Zn    Zn3+2 0.500000 0.500020 0.653130 0.931259
Zn2   Zn    Zn3+2 0.500000 0.499980 0.346870 0.990630

loop_
_geom_bond_atom_site_label_1
_geom_bond_atom_site_label_2
_ccdc_geom_bond_type
C50   N4    A    
C10   C27   A    
C42   H3    S    
C8    C13   A    
C66   H36   S    
C74   H55   S    
C73   C74   S    
C61   H21   S    
C25   C67   A    
C13   N2    A    
C68   O8    S    
C64   H32   S    
C11   O12   S    
C72   H52   S    
C39   C41   A    
C2    C6    A    
C51   N1    A    
C16   O17   A    
C28   O3    A    
C12   C23   A    
C26   C27   A    
C19   N2    S    
C30   H64   S    
C73   H60   S    
C72   H51   S    
C36   C37   A    
C57   H15   S    
C44   H5    S    
C75   H63   S    
C68   H42   S    
C7    C71   S    
C30   C31   A    
C60   H25   S    
C24   C73   S    
C64   H35   S    
C62   H31   S    
O3    Zn2   S    
C64   O7    S    
C18   C19   A    
C38   H56   S    
C55   H11   S    
C58   H19   S    
N4    Zn1   S    
C68   H41   S    
O15   Zn2   S    
C70   H46   S    
C20   C24   A    
C45   C56   A    
C8    C9    A    
C48   N3    A    
C59   H17   S    
O13   Zn2   S    
C63   H28   S    
C60   H26   S    
C66   H37   S    
C9    C10   A    
C15   O8    S    
C1    C37   S    
N3    Zn2   S    
C69   H48   S    
C28   O2    A    
C21   C22   A    
C74   H58   S    
O1    Zn1   S    
C61   H22   S    
C58   H20   S    
C59   H18   S    
C52   H1    S    
C75   O9    S    
C13   O10   S    
C44   C46   A    
C50   H6    S    
C56   H7    S    
C1    O13   A    
C16   O16   A    
C25   C29   A    
C40   C45   A    
C47   N4    A    
C27   H23   S    
C66   H38   S    
C72   H50   S    
C2    C20   A    
C47   C48   A    
C49   O7    S    
C55   O5    S    
C17   H12   S    
C18   H34   S    
C46   C65   S    
C57   H13   S    
C11   N2    A    
C54   O5    S    
C21   C34   A    
C58   C59   S    
C1    O1    A    
C25   O6    S    
C33   H66   S    
C40   O4    S    
C60   C61   S    
C35   C36   A    
C39   H2    S    
C42   C48   A    
C61   H24   S    
C43   C44   A    
C5    C9    A    
C37   C38   A    
C64   H33   S    
C31   C32   A    
C73   H59   S    
C29   H45   S    
C62   C63   S    
C17   C77   A    
C17   C18   A    
O2    Zn1   S    
C34   C45   A    
C51   C67   A    
C63   H29   S    
C28   C77   S    
C26   C58   S    
C54   C76   A    
C14   C69   S    
C69   H49   S    
C65   C66   S    
C40   N1    A    
C43   H4    S    
C65   H39   S    
C4    O15   A    
C23   N1    S    
C2    C5    A    
C42   C43   A    
C52   C53   A    
C46   C47   A    
C57   H14   S    
O16   Zn1   S    
C15   C77   A    
C14   C15   A    
C14   C19   A    
C3    C26   A    
C63   H27   S    
C3    C5    A    
C75   H61   S    
C34   C67   A    
C6    H8    S    
C6    C7    A    
C62   H30   S    
C24   C56   A    
C51   O11   S    
C30   C36   A    
C32   C33   A    
C55   H9    S    
O17   Zn2   S    
C32   C62   S    
C71   C72   S    
C75   H62   S    
C68   H43   S    
C71   H53   S    
C70   H44   S    
C23   C52   A    
C38   C39   A    
C57   O6    S    
C31   H65   S    
C74   H57   S    
C33   C35   A    
C49   N3    A    
C55   H10   S    
C69   C70   S    
C35   C41   A    
C12   C54   A    
C4    C76   S    
C7    C8    A    
C10   C11   A    
C71   H54   S    
C53   C76   A    
C12   C60   S    
C70   H47   S    
C20   C21   A    
C53   O9    S    
C49   C50   A    
C22   C29   A    
C65   H40   S    
C4    O14   A    
C3    C22   A    
C59   H16   S    
C16   C41   S    
O14   Zn1   S    
