data_str_m9_o11_o16_f0_sra.sym.79
_audit_creation_date              2012-12-11T14:17:49-0500
_audit_creation_method            fapswitch 2.2
_symmetry_space_group_name_H-M    P1
_symmetry_Int_Tables_number       1
_space_group_crystal_system       triclinic
_cell_length_a                    6.94607
_cell_length_b                    13.654729
_cell_length_c                    20.421554
_cell_angle_alpha                 102.211569
_cell_angle_beta                  90.171879
_cell_angle_gamma                 91.042657
_cell_volume                      1892.73091279

loop_
_atom_site_label
_atom_site_type_symbol
_atom_type_description
_atom_site_fract_x
_atom_site_fract_y
_atom_site_fract_z
_atom_type_partial_charge
O1    O     O_R   0.506860 0.599390 0.449240 -0.535693
O2    O     O_R   0.180220 0.594600 0.586780 -0.543419
O3    O     O_R   0.004500 0.400610 0.550760 -0.540800
C1    C     C_R   0.349831 0.615627 0.613603 0.765401
O4    O     O_R   0.177490 0.611290 0.451970 -0.542637
O5    O     O_R   0.001750 0.417420 0.414990 -0.541463
C2    C     C_R   0.347193 0.637064 0.434648 0.679693
O6    O     O_R   0.509610 0.582580 0.585010 -0.542648
O7    O     O_3   0.337420 0.436370 0.488020 -0.374915
V1    V     V_3+5 0.064680 0.511800 0.502220 1.422156
O8    O     O_R   0.671710 0.405400 0.413220 -0.549042
C3    C     C_R   0.838826 0.385340 0.386068 0.756219
O9    O     O_R   0.674440 0.388710 0.548030 -0.541957
C4    C     C_R   0.841852 0.362644 0.565265 0.694199
V2    V     V_3+5 0.564010 0.488200 0.497780 1.416815
O10   O     O_3   0.841140 0.563630 0.511980 -0.371680
C5    C     C_R   0.765275 0.116509 0.615307 -0.160159
H1    H     H_    0.762057 0.165809 0.522435 0.103223
H2    H     H_    0.716400 0.995994 0.699853 0.123693
H3    H     H_    0.722916 0.040539 0.591366 0.110666
C6    C     C_R   0.843102 0.285731 0.605356 -0.032417
C7    C     C_R   0.920858 0.314335 0.928288 -0.148692
C8    C     C_R   0.942068 0.389343 0.892149 -0.121926
C9    C     C_R   0.916684 0.367779 0.822818 -0.159438
C10   C     C_R   0.866415 0.269662 0.787662 0.080663
C11   C     C_R   0.837822 0.193962 0.825527 0.066981
C12   C     C_R   0.844858 0.243854 0.716315 0.071785
C13   C     C_R   0.790860 0.143843 0.685017 0.144873
C14   C     C_R   0.759700 0.071948 0.723427 -0.202317
C15   C     C_R   0.782850 0.096539 0.792457 -0.215879
C16   C     C_R   0.872895 0.313737 0.674717 -0.217938
C17   C     C_R   0.788965 0.187323 0.575894 -0.169622
C18   C     C_R   0.868542 0.216778 0.895834 -0.088924
H4    H     H_    0.911290 0.391154 0.694613 0.095078
H5    H     H_    0.947357 0.332179 0.981863 0.146460
H6    H     H_    0.938111 0.429635 0.798370 0.108017
H7    H     H_    0.981897 0.464699 0.917965 0.124407
H8    H     H_    0.755963 0.038530 0.820048 0.128411
C19   C     C_2   0.999290 0.306446 0.280018 -0.196999
C20   C     C_2   0.838750 0.322690 0.317298 -0.297898
H9    H     H_    0.134419 0.339615 0.301830 0.122687
H10   H     H_    0.699873 0.295812 0.295684 0.124675
C21   C     C_2   0.002525 0.253991 0.207849 0.022080
C22   C     C_2   0.865839 0.184172 0.180574 -0.317578
H11   H     H_    0.745035 0.169334 0.210776 0.107338
C23   C     C_2   0.200219 0.793660 0.779284 0.337467
C24   C     C_2   0.354350 0.810170 0.821380 -0.389780
H12   H     H_    0.480312 0.764394 0.809077 0.114389
C25   C     C_2   0.204167 0.713445 0.716408 -0.165661
C26   C     C_2   0.362545 0.686614 0.679371 -0.378814
H13   H     H_    0.068064 0.678581 0.697399 0.149556
H14   H     H_    0.502055 0.719907 0.695690 0.132479
C27   C     C_R   0.458808 0.878940 0.383433 -0.157997
H15   H     H_    0.484762 0.823934 0.473586 0.109056
H16   H     H_    0.475286 0.006250 0.302059 0.118717
H17   H     H_    0.512049 0.953019 0.407392 0.111938
C28   C     C_R   0.361201 0.712002 0.393051 -0.095279
C29   C     C_R   0.337180 0.684259 0.069982 -0.180127
C30   C     C_R   0.338767 0.607927 0.105413 -0.105795
C31   C     C_R   0.349222 0.630696 0.175138 -0.061430
C32   C     C_R   0.350139 0.731216 0.211532 0.094013
C33   C     C_R   0.366511 0.808619 0.174720 0.057683
C34   C     C_R   0.353403 0.757013 0.283215 0.071062
C35   C     C_R   0.415290 0.855605 0.314856 0.129490
C36   C     C_R   0.435068 0.930109 0.277755 -0.195067
C37   C     C_R   0.402993 0.907946 0.209085 -0.192701
C38   C     C_R   0.302397 0.689140 0.325097 -0.082733
C39   C     C_R   0.441619 0.805965 0.421298 -0.160495
C40   C     C_R   0.354333 0.784264 0.103913 -0.069674
H18   H     H_    0.329403 0.665240 0.015747 0.107050
H19   H     H_    0.365043 0.568416 0.199463 0.112025
H20   H     H_    0.335046 0.530470 0.078657 0.138738
H21   H     H_    0.417576 0.968645 0.182748 0.115899
O11   O     O_R   0.203230 0.917310 0.915020 -0.525850
O12   O     O_R   0.535500 0.888690 0.048040 -0.543981
O13   O     O_R   0.711080 0.082610 0.085000 -0.550245
C41   C     C_R   0.365756 0.861713 0.064310 0.681012
O14   O     O_R   0.532630 0.905370 0.913230 -0.546560
O15   O     O_R   0.708190 0.099410 0.949230 -0.543366
C42   C     C_R   0.362890 0.883854 0.886439 0.741372
O16   O     O_R   0.206120 0.900510 0.050790 -0.543210
O17   O     O_3   0.375360 0.063570 0.011990 -0.364073
V3    V     V_3+5 0.648170 0.988200 0.997780 1.447452
O18   O     O_R   0.038240 0.111390 0.951940 -0.532850
C43   C     C_R   0.870674 0.138145 0.935186 0.702037
O19   O     O_R   0.041120 0.094710 0.086750 -0.521742
C44   C     C_R   0.873476 0.118509 0.112610 0.786227
V4    V     V_3+5 0.148810 0.011930 0.002180 1.497705
O20   O     O_3   0.871750 0.936430 0.988010 -0.371263
C45   C     C_2   0.163844 0.284606 0.168373 0.408984
H22   H     H_    0.298565 0.311870 0.193343 0.012443
O21   O     O_2   0.144485 0.286284 0.109171 -0.534958
N1    N     N_2   0.032234 0.853291 0.795188 -0.480861
H23   H     H_    0.058602 0.929450 0.802668 0.254814
C46   C     C_3   0.853924 0.820174 0.759988 -0.577971
H24   H     H_    0.736147 0.869690 0.782088 0.193980
H25   H     H_    0.815282 0.743021 0.765393 0.193525
H26   H     H_    0.866529 0.823298 0.706244 0.187503
C47   C     C_2   0.169402 0.601776 0.302331 0.349005
H27   H     H_    0.186086 0.533578 0.320845 0.034931
O22   O     O_2   0.035020 0.606844 0.264561 -0.519549

loop_
_geom_bond_atom_site_label_1
_geom_bond_atom_site_label_2
_ccdc_geom_bond_type
N1    H23   S    
C40   C41   S    
C46   H24   S    
C1    O6    A    
C46   H26   S    
C19   H9    S    
C7    H5    S    
C6    C16   A    
C23   C25   S    
C9    H6    S    
C4    C6    S    
C13   C14   A    
O5    C3    A    
C27   C35   A    
O14   C42   A    
H15   C39   S    
V2    O10   S    
C5    H3    S    
C15   H8    S    
C32   C34   A    
C27   C39   A    
C18   C43   S    
O8    V2    S    
O14   V3    S    
C47   H27   S    
C25   H13   S    
C26   H14   S    
C8    C9    A    
O1    V2    S    
C22   C44   S    
O7    V1    S    
C38   C47   S    
C30   H20   S    
C20   H10   S    
C30   C31   A    
N1    C46   S    
O11   C42   A    
O9    C4    A    
C24   C42   S    
C28   C38   A    
O13   V3    S    
H16   C36   S    
V3    O20   S    
C6    C17   A    
C34   C38   A    
C21   C45   S    
C33   C37   A    
C12   C16   A    
C9    C10   A    
C19   C20   D    
O4    C2    A    
O19   C44   A    
C29   H18   S    
C19   C21   S    
C31   H19   S    
C29   C30   A    
C8    H7    S    
C37   H21   S    
O17   V3    S    
C33   C40   A    
C1    C26   S    
C31   C32   A    
C3    C20   S    
O2    C1    A    
C21   C22   D    
C14   C15   A    
C11   C18   A    
C45   O21   D    
C24   H12   S    
C41   O16   A    
C16   H4    S    
O18   C43   A    
O12   C41   A    
O13   C44   A    
O3    C4    A    
C47   O22   D    
C11   C15   A    
O6    V2    S    
O9    V2    S    
H1    C17   S    
C28   C39   A    
O2    V1    S    
O15   C43   A    
C22   H11   S    
C27   H17   S    
C7    C18   A    
C23   C24   D    
O1    C2    A    
C5    C13   A    
O18   V4    S    
O5    V1    S    
O8    C3    A    
C46   H25   S    
C29   C40   A    
C10   C12   A    
C35   C36   A    
C10   C11   A    
O4    V1    S    
O3    V1    S    
V1    O10   S    
O15   V3    S    
O12   V3    S    
C45   H22   S    
C23   N1    S    
O17   V4    S    
O19   V4    S    
C36   C37   A    
O7    V2    S    
C32   C33   A    
O16   V4    S    
C34   C35   A    
V4    O20   S    
C25   C26   D    
C12   C13   A    
C5    C17   A    
C7    C8    A    
O11   V4    S    
C2    C28   S    
H2    C14   S    
