data_str_m9_o5_o16_f0_sra.sym.164
_audit_creation_date              2013-03-05T16:09:06-0500
_audit_creation_method            fapswitch 2.2
_symmetry_space_group_name_H-M    P1
_symmetry_Int_Tables_number       1
_space_group_crystal_system       triclinic
_cell_length_a                    18.3614
_cell_length_b                    7.0754
_cell_length_c                    13.421029
_cell_angle_alpha                 90.00044
_cell_angle_beta                  69.10088
_cell_angle_gamma                 89.999966
_cell_volume                      1628.87250969

loop_
_atom_site_label
_atom_site_type_symbol
_atom_site_description
_atom_site_fract_x
_atom_site_fract_y
_atom_site_fract_z
_atom_type_partial_charge
O1    O     O_R   0.453880 0.506200 0.150010 -0.573632
O2    O     O_R   0.546120 0.006200 0.849990 -0.573636
O3    O     O_R   0.604080 0.177770 0.007280 -0.591484
O4    O     O_R   0.395920 0.677770 0.992720 -0.591493
C1    C     C_R   0.636179 0.344712 0.001421 0.975233
C2    C     C_R   0.363821 0.844712 0.998579 0.975237
O5    O     O_R   0.458010 0.176640 0.159130 -0.603349
O6    O     O_R   0.541990 0.676640 0.840870 -0.603351
O7    O     O_R   0.399010 0.004010 0.002930 -0.588558
O8    O     O_R   0.600990 0.504010 0.997070 -0.588561
C3    C     C_R   0.448055 0.346315 0.201544 0.955835
C4    C     C_R   0.551945 0.846314 0.798456 0.955843
O9    O     O_3   0.480810 0.338440 0.948570 -0.285707
O10   O     O_3   0.519190 0.838440 0.051430 -0.285703
V1    V     V_3+5 0.503560 0.064490 0.009540 1.219267
V2    V     V_3+5 0.496440 0.564490 0.990460 1.219262
C5    C     C_R   0.578751 0.980279 0.515062 -0.177033
C6    C     C_R   0.421250 0.480284 0.484941 -0.177035
H1    H     H_    0.485557 0.013281 0.666807 0.117123
H2    H     H_    0.514443 0.513289 0.333195 0.117122
H3    H     H_    0.660609 0.004206 0.305740 0.132549
H4    H     H_    0.339389 0.504201 0.694267 0.132551
H5    H     H_    0.546306 0.047540 0.471357 0.128254
H6    H     H_    0.453695 0.547545 0.528647 0.128255
C7    C     C_R   0.582751 0.858742 0.681536 -0.141593
C8    C     C_R   0.417250 0.358745 0.318466 -0.141565
C9    C     C_R   0.947362 0.855051 0.377605 -0.353654
C10   C     C_R   0.052641 0.355050 0.622384 -0.353699
C11   C     C_R   0.915325 0.854899 0.488005 0.534162
C12   C     C_R   0.084683 0.354912 0.511982 0.534158
C13   C     C_R   0.832910 0.836427 0.538555 0.201040
C14   C     C_R   0.167098 0.336458 0.461437 0.201036
C15   C     C_R   0.783367 0.841801 0.476461 -0.101912
C16   C     C_R   0.216636 0.341806 0.523538 -0.101937
C17   C     C_R   0.818890 0.867553 0.364358 0.075291
C18   C     C_R   0.181111 0.367547 0.635642 0.075312
C19   C     C_R   0.699817 0.848264 0.522390 0.131279
C20   C     C_R   0.300186 0.348266 0.477613 0.131297
C21   C     C_R   0.657050 0.926578 0.462947 0.174887
C22   C     C_R   0.342951 0.426579 0.537057 0.174888
C23   C     C_R   0.693354 0.952812 0.353297 -0.244772
C24   C     C_R   0.306646 0.452807 0.646707 -0.244780
C25   C     C_R   0.772399 0.913776 0.303711 -0.157366
C26   C     C_R   0.227601 0.413766 0.696291 -0.157366
C27   C     C_R   0.656627 0.786891 0.626457 -0.127106
C28   C     C_R   0.343375 0.286890 0.373545 -0.127120
C29   C     C_R   0.543587 0.958075 0.625626 -0.182482
C30   C     C_R   0.456413 0.458080 0.374376 -0.182482
C31   C     C_R   0.900775 0.858494 0.315898 -0.245503
C32   C     C_R   0.099225 0.358489 0.684098 -0.245492
H7    H     H_    0.679336 0.687097 0.667579 0.193997
H8    H     H_    0.320665 0.187092 0.332428 0.193976
H9    H     H_    0.010119 0.866669 0.339176 0.153191
H10   H     H_    0.989885 0.366659 0.660809 0.153215
H11   H     H_    0.797870 0.934803 0.218305 0.122936
H12   H     H_    0.202128 0.434788 0.781698 0.122940
C33   C     C_1   0.216265 0.858419 0.000738 -0.245164
C34   C     C_1   0.783735 0.358419 0.999261 -0.245144
C35   C     C_1   0.283398 0.852825 0.999618 -0.192665
C36   C     C_1   0.716602 0.352825 0.000382 -0.192666
O11   O     O_R   0.899030 0.205490 0.002790 -0.602667
O12   O     O_R   0.100970 0.705490 0.997210 -0.602678
O13   O     O_R   0.042000 0.536370 0.840840 -0.604886
O14   O     O_R   0.958000 0.036370 0.159160 -0.604846
C37   C     C_R   0.060193 0.368234 0.799326 0.968639
C38   C     C_R   0.939805 0.868236 0.200672 0.968670
O15   O     O_R   0.895930 0.535070 0.992690 -0.603167
O16   O     O_R   0.104070 0.035070 0.007310 -0.603146
O17   O     O_R   0.953870 0.707520 0.150040 -0.598392
O18   O     O_R   0.046130 0.207520 0.849960 -0.598371
C39   C     C_R   0.864055 0.366498 0.998539 0.971417
C40   C     C_R   0.135945 0.866498 0.001460 0.971414
O19   O     O_3   0.019200 0.374340 0.051340 -0.295488
O20   O     O_3   0.980800 0.874340 0.948660 -0.295501
V3    V     V_3+5 0.996440 0.648350 0.990470 1.128631
V4    V     V_3+5 0.003560 0.148350 0.009530 1.128664
N1    N     N_R   0.800003 0.831006 0.651882 0.203900
O21   O     O_R   0.792054 0.667758 0.699646 -0.482042
O22   O     O_R   0.763973 0.978853 0.704403 -0.428568
N2    N     N_R   0.200013 0.331142 0.348110 0.203928
O23   O     O_R   0.207976 0.167944 0.300293 -0.482045
O24   O     O_R   0.236032 0.479041 0.295639 -0.428550
O25   O     O_3   0.965441 0.917947 0.538232 -0.673289
C41   C     C_3   0.960773 0.817401 0.630926 0.261162
H13   H     H_    0.020970 0.774004 0.621849 0.114912
H14   H     H_    0.928900 0.681545 0.641032 0.139457
C42   C     C_3   0.930971 0.950999 0.727686 -0.339278
H15   H     H_    0.982096 0.012396 0.741539 0.196161
H16   H     H_    0.897907 0.071160 0.711421 0.245380
C43   C     C_3   0.879797 0.851723 0.829410 -0.710043
H17   H     H_    0.819902 0.827423 0.832711 0.295346
H18   H     H_    0.872107 0.943423 0.898845 0.253855
H19   H     H_    0.906516 0.715152 0.836983 0.255814
O26   O     O_3   0.034571 0.417956 0.461748 -0.673286
C44   C     C_3   0.039247 0.317407 0.369049 0.261231
H20   H     H_    0.979053 0.273974 0.378128 0.114887
H21   H     H_    0.071132 0.181566 0.358937 0.139425
C45   C     C_3   0.069032 0.451015 0.272290 -0.339237
H22   H     H_    0.017899 0.512313 0.258417 0.196161
H23   H     H_    0.102056 0.571241 0.288576 0.245318
C46   C     C_3   0.120256 0.351803 0.170567 -0.709914
H24   H     H_    0.180169 0.327796 0.167250 0.295342
H25   H     H_    0.127883 0.443420 0.101126 0.253820
H26   H     H_    0.093627 0.215104 0.163005 0.255733

loop_
_geom_bond_atom_site_label_1
_geom_bond_atom_site_label_2
_geom_bond_distance
_ccdc_geom_bond_type
C12   C14   1.426460 A    
C42   H15   1.108592 S    
O13   C37   1.305545 A    
C46   H24   1.098224 S    
C9    C11   1.385491 A    
C23   C25   1.391598 A    
C44   H20   1.111197 S    
O1    C3    1.310257 A    
C41   C42   1.540240 S    
O2    C4    1.310250 A    
C2    O7    1.310780 A    
C44   C45   1.540270 S    
O3    V1    2.002486 S    
C21   C23   1.394481 A    
N1    O21   1.303690 A    
O5    C3    1.313180 A    
C5    H5    1.083863 S    
O20   V4    2.200969 S    
C6    H6    1.083860 S    
C41   H14   1.108264 S    
C11   O25   1.393824 S    
H1    C29   1.083161 S    
C34   C39   1.472469 S    
C33   C35   1.228006 T    
C38   O17   1.302425 A    
C27   H7    1.068255 S    
C34   C36   1.228007 T    
C37   O18   1.302433 A    
C28   H8    1.068257 S    
C5    C21   1.408229 A    
C6    C22   1.408231 A    
C10   C32   1.386966 A    
C17   C31   1.410682 A    
C13   C15   1.436775 A    
C17   C25   1.412049 A    
C7    C29   1.399677 A    
O15   C39   1.318518 A    
C8    C30   1.399681 A    
O11   C39   1.318926 A    
C22   C24   1.394485 A    
O6    V2    2.040068 S    
C11   C13   1.426474 A    
O19   V3    2.200979 S    
C24   C26   1.391609 A    
C13   N1    1.422755 S    
N1    O22   1.302346 A    
O11   V4    1.994812 S    
O20   V3    1.751862 S    
C41   H13   1.111198 S    
N2    O24   1.302336 A    
C31   C38   1.455724 S    
C10   H10   1.084685 S    
C12   O26   1.393831 S    
C3    C8    1.468617 S    
C15   C19   1.435559 A    
O16   C40   1.318518 A    
C14   C16   1.436763 A    
O4    V2    2.002486 S    
C14   N2    1.422749 S    
C26   H12   1.082712 S    
C43   H18   1.102457 S    
O25   C41   1.408918 S    
O6    C4    1.313181 A    
C44   H21   1.108263 S    
O14   V4    2.040062 S    
O12   C40   1.318923 A    
O1    V2    2.042598 S    
O2    V1    2.042591 S    
H2    C30   1.083160 S    
H3    C23   1.083926 S    
O4    C2    1.309837 A    
C46   H26   1.104647 S    
C45   H23   1.110675 S    
C42   H16   1.110675 S    
O18   V4    2.044110 S    
O19   V4    1.751854 S    
O12   V3    1.994813 S    
C18   C26   1.412055 A    
O15   V3    2.002487 S    
C19   C27   1.406411 A    
C7    C27   1.389059 A    
C18   C32   1.410687 A    
C43   H19   1.104677 S    
C25   H11   1.082714 S    
C1    C36   1.472889 S    
C16   C20   1.435545 A    
C2    C35   1.472888 S    
C5    C29   1.399968 A    
N2    O23   1.303680 A    
O3    C1    1.309838 A    
C6    C30   1.399976 A    
C9    H9    1.084688 S    
O9    V2    1.752599 S    
O16   V4    2.002484 S    
C45   C46   1.524827 S    
C4    C7    1.468605 S    
C10   C12   1.385515 A    
O7    V1    1.999417 S    
C1    O8    1.310780 A    
C19   C21   1.416712 A    
O8    V2    1.999420 S    
C20   C22   1.416698 A    
C43   H17   1.098274 S    
H4    C24   1.083922 S    
O13   V3    2.040048 S    
O5    V1    2.040054 S    
C15   C17   1.422025 A    
O17   V3    2.044105 S    
C16   C18   1.422023 A    
C33   C40   1.472471 S    
O26   C44   1.408938 S    
C32   C37   1.455757 S    
C20   C28   1.406405 A    
C8    C28   1.389058 A    
C46   H25   1.102396 S    
C45   H22   1.108589 S    
C42   C43   1.524793 S    
O10   V1    1.752606 S    
C9    C31   1.386940 A    
O14   C38   1.305536 A    
