data_str_m2_o10_o28_f0_pcu.sym.258
_audit_creation_date              2012-12-10T16:50:17-0500
_audit_creation_method            fapswitch 2.2
_symmetry_space_group_name_H-M    P1
_symmetry_Int_Tables_number       1
_space_group_crystal_system       triclinic
_cell_length_a                    23.454926
_cell_length_b                    8.678989
_cell_length_c                    7.438021
_cell_angle_alpha                 102.988199
_cell_angle_beta                  94.186725
_cell_angle_gamma                 92.307731
_cell_volume                      1468.94281746

loop_
_atom_site_label
_atom_site_type_symbol
_atom_type_description
_atom_site_fract_x
_atom_site_fract_y
_atom_site_fract_z
_atom_type_partial_charge
C1    C     C_R   0.498265 0.199658 0.453206 0.892750
C2    C     C_R   0.501735 0.800342 0.546794 0.892765
C3    C     C_R   0.245465 0.589665 0.662027 -0.074483
C4    C     C_R   0.754541 0.410257 0.338091 -0.074473
C5    C     C_R   0.304683 0.587457 0.656341 -0.222519
C6    C     C_R   0.695322 0.412457 0.343752 -0.222552
C7    C     C_R   0.328535 0.490197 0.506473 -0.088023
C8    C     C_R   0.671463 0.509814 0.493532 -0.087999
C9    C     C_R   0.292036 0.390761 0.363729 0.126511
C10   C     C_R   0.707954 0.609353 0.636208 0.126477
C11   C     C_R   0.232849 0.393670 0.371345 -0.112217
C12   C     C_R   0.767142 0.606453 0.628619 -0.112166
C13   C     C_R   0.209480 0.493427 0.518951 0.303025
C14   C     C_R   0.790520 0.506599 0.481104 0.302977
C15   C     C_2   0.497395 0.031755 0.426839 -0.343449
C16   C     C_2   0.502605 0.968245 0.573161 -0.343424
C17   C     C_R   0.390996 0.495373 0.501673 0.822836
C18   C     C_R   0.609003 0.504628 0.498327 0.822850
C19   C     C_R   0.882203 0.628584 0.445883 0.544614
C20   C     C_R   0.117799 0.371454 0.554206 0.544625
C21   C     C_R   0.877626 0.373773 0.518233 0.546676
C22   C     C_R   0.122376 0.626267 0.481861 0.546680
C23   C     C_R   0.937459 0.370234 0.527248 -0.015004
C24   C     C_R   0.062543 0.629810 0.472854 -0.015008
C25   C     C_R   0.969862 0.500134 0.495057 -0.014551
C26   C     C_R   0.030140 0.499910 0.505047 -0.014549
C27   C     C_R   0.942135 0.630372 0.453209 -0.015363
C28   C     C_R   0.057867 0.369671 0.546891 -0.015371
C29   C     C_R   0.965544 0.241220 0.569468 -0.163318
C30   C     C_R   0.034458 0.758824 0.430638 -0.163320
C31   C     C_R   0.025149 0.240952 0.579229 -0.173265
C32   C     C_R   0.974853 0.759092 0.420875 -0.173264
Cu1   Cu    Cu3+1 0.506340 0.517380 0.684380 0.990485
Cu2   Cu    Cu3+1 0.493660 0.482620 0.315620 0.990483
H1    H     H_    0.941591 0.140337 0.595589 0.193615
H2    H     H_    0.058411 0.859707 0.404516 0.193618
H3    H     H_    0.045459 0.139740 0.612260 0.186160
H4    H     H_    0.954543 0.860303 0.387843 0.186161
H5    H     H_    0.227487 0.666698 0.776843 0.164469
H6    H     H_    0.772524 0.333148 0.223345 0.164502
H7    H     H_    0.331903 0.664145 0.767329 0.177279
H8    H     H_    0.668106 0.335688 0.232819 0.177264
H9    H     H_    0.204696 0.318322 0.261975 0.169380
H10   H     H_    0.795290 0.681881 0.737941 0.169407
H11   H     H_    0.492463 0.960075 0.285858 0.184056
H12   H     H_    0.507537 0.039925 0.714141 0.184061
H13   H     H_    0.454933 0.379129 0.948745 0.241306
H14   H     H_    0.545067 0.620871 0.051255 0.241300
N1    N     N_R   0.851415 0.501918 0.479023 -0.468260
N2    N     N_R   0.148585 0.498119 0.521062 -0.468274
N3    N     N_2   0.484110 0.456420 0.038520 -0.210888
N4    N     N_2   0.515890 0.543580 0.961480 -0.210890
O1    O     O_R   0.504120 0.286130 0.619770 -0.586524
O2    O     O_R   0.495880 0.713870 0.380230 -0.586529
O3    O     O_R   0.493410 0.256770 0.308360 -0.575853
O4    O     O_R   0.506590 0.743230 0.691640 -0.575846
O5    O     O_R   0.423230 0.514630 0.655730 -0.590979
O6    O     O_R   0.576770 0.485370 0.344270 -0.590970
O7    O     O_R   0.412530 0.485280 0.344320 -0.553245
O8    O     O_R   0.587470 0.514720 0.655680 -0.553246
O9    O     O_2   0.854833 0.752246 0.406210 -0.507104
O10   O     O_2   0.145170 0.247787 0.593863 -0.507079
O11   O     O_2   0.845873 0.251271 0.550702 -0.506837
O12   O     O_2   0.154129 0.748770 0.449395 -0.506819
I1    I     I_    0.321640 0.225179 0.138204 -0.321321
I2    I     I_    0.678331 0.775071 0.861575 -0.321347

loop_
_geom_bond_atom_site_label_1
_geom_bond_atom_site_label_2
_ccdc_geom_bond_type
C17   O5    A    
C20   N2    A    
C5    H7    S    
C11   H9    S    
C1    C15   S    
C32   H4    S    
C2    C16   S    
C30   C32   A    
Cu1   O1    S    
C19   C27   A    
Cu1   O5    S    
C19   N1    A    
C26   C28   A    
C3    C13   A    
C30   H2    S    
C22   N2    A    
C4    H6    S    
Cu1   O4    S    
C21   N1    A    
Cu1   Cu2   S    
C1    O3    A    
C3    H5    S    
Cu2   O3    S    
C29   C31   A    
C4    C14   A    
C2    O4    A    
Cu1   N4    S    
C1    O1    A    
C9    C11   A    
Cu2   N3    S    
C10   C12   A    
C17   O7    A    
C27   C32   A    
C6    C8    A    
C23   C29   A    
C18   O8    A    
C12   C14   A    
Cu2   O2    S    
Cu1   O8    S    
C9    I1    S    
C10   I2    S    
C21   C23   A    
C20   O10   S    
Cu2   O7    S    
C19   O9    S    
Cu2   O6    S    
C22   C24   A    
C21   O11   S    
C24   C30   A    
C25   C27   A    
C15   C16   D    
C15   H11   S    
C22   O12   S    
C13   N2    S    
C14   N1    S    
C7    C9    A    
C11   C13   A    
C23   C25   A    
N3    N4    D    
C4    C6    A    
C2    O2    A    
C16   H12   S    
C28   C31   A    
C5    C7    A    
C29   H1    S    
C12   H10   S    
H13   N3    S    
C20   C28   A    
C7    C17   S    
C25   C26   A    
H14   N4    S    
C6    H8    S    
C18   O6    A    
C8    C10   A    
C8    C18   S    
C31   H3    S    
C24   C26   A    
C3    C5    A    
