data_str_m3_o10_o25_f0_pcu.sym.215
_audit_creation_date              2012-12-10T16:56:33-0500
_audit_creation_method            fapswitch 2.2
_symmetry_space_group_name_H-M    P1
_symmetry_Int_Tables_number       1
_space_group_crystal_system       triclinic
_cell_length_a                    8.151199
_cell_length_b                    8.702985
_cell_length_c                    15.736646
_cell_angle_alpha                 102.17372
_cell_angle_beta                  81.736436
_cell_angle_gamma                 90.900015
_cell_volume                      1079.79712324

loop_
_atom_site_label
_atom_site_type_symbol
_atom_type_description
_atom_site_fract_x
_atom_site_fract_y
_atom_site_fract_z
_atom_type_partial_charge
C1    C     C_R   0.540658 0.791958 0.497397 0.910296
C2    C     C_R   0.459342 0.208042 0.502603 0.910296
C3    C     C_R   0.495275 0.501882 0.661862 0.861713
C4    C     C_R   0.504725 0.498117 0.338138 0.861713
C5    C     C_2   0.557632 0.944205 0.480314 -0.104190
C6    C     C_2   0.442367 0.055795 0.519685 -0.104190
C7    C     C_3   0.486189 0.649615 0.047690 -0.198342
C8    C     C_3   0.513811 0.350385 0.952310 -0.198343
C9    C     C_3   0.625472 0.587365 0.969641 -0.243603
C10   C     C_3   0.374528 0.412635 0.030359 -0.243603
C11   C     C_1   0.485639 0.502769 0.751697 -0.149928
C12   C     C_1   0.514361 0.497230 0.248303 -0.149929
C13   C     C_3   0.357376 0.561367 0.993925 0.162622
C14   C     C_3   0.642624 0.438633 0.006075 0.162621
C15   C     C_3   0.492853 0.500783 0.917386 0.163528
C16   C     C_3   0.507147 0.499217 0.082614 0.163528
C17   C     C_1   0.485307 0.502421 0.827095 -0.055199
C18   C     C_1   0.514693 0.497579 0.172905 -0.055199
H1    H     H_    0.729433 0.655852 0.943249 0.147697
H2    H     H_    0.270567 0.344148 0.056751 0.147697
H3    H     H_    0.471752 0.771064 0.087976 0.138106
H4    H     H_    0.528248 0.228936 0.912024 0.138106
N1    N     N_2   0.950320 0.457950 0.477300 -0.108960
N2    N     N_2   0.049680 0.542050 0.522700 -0.108960
O1    O     O_R   0.389250 0.738570 0.505570 -0.666562
O2    O     O_R   0.610750 0.261430 0.494430 -0.666562
O3    O     O_R   0.678390 0.711630 0.491020 -0.626167
O4    O     O_R   0.321610 0.288370 0.508980 -0.626167
O5    O     O_R   0.355460 0.513480 0.630490 -0.630633
O6    O     O_R   0.644540 0.486520 0.369510 -0.630633
O7    O     O_R   0.644600 0.486540 0.615950 -0.625239
O8    O     O_R   0.355400 0.513460 0.384050 -0.625239
Zn1   Zn    Zn3+2 0.306940 0.517990 0.509710 0.912084
Zn2   Zn    Zn3+2 0.693060 0.482010 0.490290 0.912084
N3    N     N_3   0.799368 0.370086 0.015115 -0.468098
H5    H     H_    0.869548 0.343748 0.952706 0.176482
H6    H     H_    0.862545 0.457357 0.053598 0.179804
N4    N     N_3   0.200632 0.629914 0.984885 -0.468099
H7    H     H_    0.130451 0.656252 0.047294 0.176483
H8    H     H_    0.137455 0.542643 0.946402 0.179804
N5    N     N_3   0.690282 0.963733 0.412640 -0.441298
H9    H     H_    0.782275 0.033591 0.440391 0.228028
H10   H     H_    0.643585 0.011238 0.365104 0.161186
N6    N     N_3   0.309718 0.036267 0.587360 -0.441298
H11   H     H_    0.217725 0.966409 0.559608 0.228028
H12   H     H_    0.356415 0.988762 0.634896 0.161187
C19   C     C_R   0.001565 0.338842 0.393904 0.252182
C20   C     C_R   0.879263 0.265394 0.343778 -0.142057
C21   C     C_R   0.912195 0.175319 0.258161 -0.193960
C22   C     C_R   0.073633 0.140189 0.219558 -0.081484
C23   C     C_R   0.198427 0.186441 0.269607 -0.209455
C24   C     C_R   0.161169 0.276694 0.355220 -0.127284
H13   H     H_    0.754387 0.264409 0.368987 0.194956
H14   H     H_    0.811142 0.128301 0.223181 0.133968
H15   H     H_    0.101032 0.069224 0.153746 0.130765
H16   H     H_    0.324986 0.148683 0.243146 0.124428
H17   H     H_    0.264068 0.284311 0.385269 0.194617
C25   C     C_R   0.998435 0.661158 0.606096 0.252181
C26   C     C_R   0.120737 0.734606 0.656222 -0.142057
C27   C     C_R   0.087805 0.824681 0.741839 -0.193960
C28   C     C_R   0.926367 0.859811 0.780442 -0.081484
C29   C     C_R   0.801573 0.813559 0.730393 -0.209455
C30   C     C_R   0.838831 0.723306 0.644780 -0.127284
H18   H     H_    0.245613 0.735591 0.631013 0.194957
H19   H     H_    0.188857 0.871699 0.776819 0.133968
H20   H     H_    0.898968 0.930775 0.846254 0.130765
H21   H     H_    0.675014 0.851317 0.756854 0.124428
H22   H     H_    0.735932 0.715689 0.614731 0.194617

loop_
_geom_bond_atom_site_label_1
_geom_bond_atom_site_label_2
_ccdc_geom_bond_type
C27   H19   S    
C19   C20   A    
C8    H4    S    
C9    C14   S    
C26   C27   A    
C19   C24   A    
C4    C12   S    
N5    H9    S    
C22   H15   S    
N1    N2    D    
N1    Zn2   S    
O8    Zn1   S    
C28   C29   A    
C29   C30   A    
C2    C6    S    
C22   C23   A    
C26   H18   S    
O7    Zn2   S    
C4    O6    A    
C23   C24   A    
C2    O2    A    
C10   C16   S    
O2    Zn2   S    
C3    O7    A    
C1    O1    A    
N5    H10   S    
C3    O5    A    
C13   N4    S    
C4    O8    A    
C10   H2    S    
C29   H21   S    
C1    C5    S    
C5    C6    D    
C16   C18   S    
C20   C21   A    
N4    H8    S    
N6    H12   S    
O4    Zn1   S    
C21   C22   A    
C8    C15   S    
C7    C9    S    
C13   C15   S    
O3    Zn2   S    
C9    C15   S    
C20   H13   S    
C14   C16   S    
N1    C19   S    
C24   H17   S    
O6    Zn2   S    
C21   H14   S    
N2    C25   S    
O5    Zn1   S    
C7    C13   S    
C3    C11   S    
N6    H11   S    
C6    N6    S    
C1    O3    A    
C23   H16   S    
C12   C18   T    
C25   C30   A    
C15   C17   S    
C5    N5    S    
C30   H22   S    
C7    C16   S    
C2    O4    A    
N3    H5    S    
C8    C14   S    
N3    H6    S    
C25   C26   A    
C7    H3    S    
C28   H20   S    
C14   N3    S    
C8    C10   S    
C11   C17   T    
N2    Zn1   S    
C9    H1    S    
O1    Zn1   S    
C27   C28   A    
C10   C13   S    
N4    H7    S    
