data_str_m9_o6_o16_f0_sra.sym.3
_audit_creation_date              2012-12-11T17:23:10-0500
_audit_creation_method            fapswitch 2.2
_symmetry_space_group_name_H-M    P1
_symmetry_Int_Tables_number       1
_space_group_crystal_system       triclinic
_cell_length_a                    22.314358
_cell_length_b                    7.084059
_cell_length_c                    19.630219
_cell_angle_alpha                 90.000481
_cell_angle_beta                  99.070664
_cell_angle_gamma                 89.999931
_cell_volume                      3064.26601561

loop_
_atom_site_label
_atom_site_type_symbol
_atom_type_description
_atom_site_fract_x
_atom_site_fract_y
_atom_site_fract_z
_atom_type_partial_charge
O1    O     O_R   0.443980 0.494320 0.557430 -0.533494
O2    O     O_R   0.556020 0.994320 0.442570 -0.533470
O3    O     O_R   0.441210 0.822520 0.414610 -0.541066
O4    O     O_R   0.558790 0.322520 0.585390 -0.541072
C1    C     C_R   0.427235 0.655130 0.388989 0.711183
C2    C     C_R   0.572764 0.155131 0.611012 0.711173
O5    O     O_R   0.436920 0.823940 0.555180 -0.538664
O6    O     O_R   0.563080 0.323940 0.444820 -0.538670
O7    O     O_R   0.551700 0.995760 0.584140 -0.541504
O8    O     O_R   0.448300 0.495760 0.415860 -0.541508
C3    C     C_R   0.421664 0.655453 0.574989 0.718566
C4    C     C_R   0.578336 0.155452 0.425011 0.718589
O9    O     O_3   0.537660 0.661290 0.509340 -0.369943
O10   O     O_3   0.462340 0.161290 0.490660 -0.369949
V1    V     V_3+5 0.493010 0.935560 0.498270 1.428069
V2    V     V_3+5 0.506990 0.435560 0.501730 1.428048
H1    H     H_    0.703029 0.817421 0.288296 0.112866
H2    H     H_    0.296975 0.317423 0.711706 0.112871
C5    C     C_R   0.767059 0.931540 0.227767 -0.153619
C6    C     C_R   0.232943 0.431540 0.772234 -0.153622
H3    H     H_    0.779512 0.793647 0.210652 0.111454
H4    H     H_    0.220492 0.293647 0.789350 0.111454
C7    C     C_R   0.794330 0.094739 0.205911 0.134910
C8    C     C_R   0.205670 0.594738 0.794090 0.134912
C9    C     C_R   0.777294 0.271667 0.228939 -0.154374
C10   C     C_R   0.222704 0.771666 0.771061 -0.154372
H5    H     H_    0.797748 0.399363 0.212724 0.112681
H6    H     H_    0.202249 0.899361 0.787275 0.112682
C11   C     C_R   0.733735 0.285223 0.273240 -0.148399
C12   C     C_R   0.266264 0.785223 0.726759 -0.148402
H7    H     H_    0.721317 0.423117 0.290391 0.114636
H8    H     H_    0.278680 0.923117 0.709608 0.114638
C13   C     C_R   0.706555 0.122020 0.295209 0.137401
C14   C     C_R   0.293445 0.622021 0.704791 0.137397
C15   C     C_R   0.723482 0.945099 0.272060 -0.148435
C16   C     C_R   0.276521 0.445100 0.727942 -0.148441
C17   C     C_1   0.839795 0.081022 0.160336 -0.061523
C18   C     C_1   0.160206 0.581019 0.839665 -0.061524
C19   C     C_1   0.661511 0.135792 0.341292 -0.043517
C20   C     C_1   0.338489 0.635795 0.658708 -0.043500
C21   C     C_1   0.623788 0.145965 0.379638 -0.166533
C22   C     C_1   0.376212 0.645967 0.620362 -0.166527
C23   C     C_1   0.877922 0.071086 0.122484 -0.191003
C24   C     C_1   0.122079 0.571084 0.877516 -0.191002
C25   C     C_R   0.621639 0.068298 0.800513 -0.186010
C26   C     C_R   0.378363 0.568281 0.199488 -0.185976
H9    H     H_    0.696033 0.990571 0.911178 0.119040
H10   H     H_    0.303969 0.490540 0.088823 0.119040
H11   H     H_    0.601117 0.043315 0.846263 0.110220
H12   H     H_    0.398887 0.543291 0.153740 0.110218
C27   C     C_R   0.610986 0.142326 0.679227 -0.062647
C28   C     C_R   0.389014 0.642322 0.320774 -0.062696
C29   C     C_R   0.905470 0.102407 0.766960 -0.187888
C30   C     C_R   0.094531 0.602438 0.233038 -0.187889
C31   C     C_R   0.871920 0.089782 0.700545 0.147542
C32   C     C_R   0.128081 0.589832 0.299454 0.147545
C33   C     C_R   0.808442 0.058105 0.693473 -0.040030
C34   C     C_R   0.191557 0.558131 0.306526 -0.040039
C35   C     C_R   0.778305 0.069877 0.752509 -0.040425
C36   C     C_R   0.221695 0.569882 0.247490 -0.040428
C37   C     C_R   0.814322 0.051789 0.820143 0.033646
C38   C     C_R   0.185679 0.551786 0.179856 0.033647
C39   C     C_R   0.713138 0.090423 0.746213 0.070799
C40   C     C_R   0.286863 0.590421 0.253787 0.070802
C41   C     C_R   0.684948 0.060918 0.804766 0.092079
C42   C     C_R   0.315053 0.560904 0.195235 0.092073
C43   C     C_R   0.719410 0.020519 0.867874 -0.209115
C44   C     C_R   0.280591 0.520498 0.132127 -0.209117
C45   C     C_R   0.782679 0.014678 0.877146 0.101884
C46   C     C_R   0.217322 0.514659 0.122854 0.101886
C47   C     C_R   0.674685 0.145238 0.684420 -0.272182
C48   C     C_R   0.325315 0.645241 0.315579 -0.272177
C49   C     C_R   0.584147 0.104329 0.738077 0.139685
C50   C     C_R   0.415854 0.604317 0.261925 0.139689
C51   C     C_R   0.879442 0.071179 0.826108 -0.129184
C52   C     C_R   0.120559 0.571185 0.173891 -0.129185
H13   H     H_    0.692935 0.191267 0.639493 0.142585
H14   H     H_    0.307065 0.691278 0.360505 0.142577
H15   H     H_    0.954016 0.124212 0.773768 0.131112
H16   H     H_    0.045986 0.624252 0.226230 0.131115
O11   O     O_R   0.051730 0.724670 0.084120 -0.536018
O12   O     O_R   0.948270 0.224670 0.915880 -0.536017
O13   O     O_R   0.063080 0.393540 0.944820 -0.536202
O14   O     O_R   0.936920 0.893540 0.055180 -0.536202
C53   C     C_R   0.076330 0.561710 0.922546 0.714081
C54   C     C_R   0.923670 0.061710 0.077455 0.714084
O15   O     O_R   0.058800 0.395030 0.085390 -0.534310
O16   O     O_R   0.941200 0.895030 0.914610 -0.534309
O17   O     O_R   0.943980 0.223310 0.057440 -0.533367
O18   O     O_R   0.056020 0.723310 0.942560 -0.533366
C55   C     C_R   0.075684 0.563846 0.109002 0.704905
C56   C     C_R   0.924317 0.063845 0.890997 0.704909
O19   O     O_3   0.962360 0.556290 0.990650 -0.373107
O20   O     O_3   0.037640 0.056290 0.009350 -0.373109
V3    V     V_3+5 0.006980 0.281990 0.001730 1.395255
V4    V     V_3+5 0.993020 0.781990 0.998270 1.395255
C57   C     C_2   0.775779 0.975668 0.628077 0.302281
H17   H     H_    0.742025 0.866549 0.630565 0.075935
O21   O     O_2   0.783854 0.032584 0.571540 -0.538393
C58   C     C_2   0.224218 0.475691 0.371923 0.302289
H18   H     H_    0.257973 0.366574 0.369435 0.075935
O22   O     O_2   0.216140 0.532598 0.428460 -0.538396
C59   C     C_3   0.903386 0.100779 0.636844 -0.281158
C60   C     C_3   0.971468 0.144053 0.649443 -0.809099
H19   H     H_    0.980436 0.281065 0.676681 0.232659
H20   H     H_    0.997022 0.028827 0.679525 0.229721
H21   H     H_    0.988028 0.154504 0.599109 0.234219
H22   H     H_    0.897188 0.964208 0.608760 0.207029
H23   H     H_    0.881231 0.213937 0.602563 0.220449
C61   C     C_3   0.096616 0.600879 0.363155 -0.281149
C62   C     C_3   0.028538 0.644206 0.350555 -0.809106
H24   H     H_    0.019579 0.781206 0.323307 0.232660
H25   H     H_    0.002974 0.528979 0.320484 0.229721
H26   H     H_    0.011980 0.654710 0.400889 0.234218
H27   H     H_    0.102804 0.464315 0.391244 0.207038
H28   H     H_    0.118780 0.714035 0.397431 0.220446
C63   C     C_3   0.811124 0.945398 0.947418 -0.352917
C64   C     C_3   0.821629 0.732152 0.946458 -0.640040
H29   H     H_    0.845005 0.684376 0.997619 0.217875
H30   H     H_    0.777355 0.657645 0.935299 0.194787
H31   H     H_    0.849037 0.692001 0.906257 0.230391
H32   H     H_    0.851422 0.026796 0.967012 0.156570
H33   H     H_    0.781191 0.973385 0.986589 0.161181
C65   C     C_3   0.188877 0.445365 0.052584 -0.352921
C66   C     C_3   0.178370 0.232121 0.053550 -0.640040
H34   H     H_    0.154995 0.184336 0.002390 0.217874
H35   H     H_    0.222642 0.157612 0.064714 0.194790
H36   H     H_    0.150959 0.191987 0.093751 0.230392
H37   H     H_    0.148580 0.526762 0.032988 0.156572
H38   H     H_    0.218811 0.473335 0.013412 0.161182
C67   C     C_3   0.515915 0.103524 0.736075 -0.378651
C68   C     C_3   0.491035 0.304085 0.737101 -0.740801
H39   H     H_    0.511831 0.377787 0.784988 0.223226
H40   H     H_    0.500684 0.385501 0.691823 0.231597
H41   H     H_    0.441103 0.299086 0.735643 0.214156
H42   H     H_    0.492946 0.027434 0.689775 0.181837
H43   H     H_    0.503835 0.026460 0.781363 0.175104
C69   C     C_3   0.484087 0.603509 0.263933 -0.378639
C70   C     C_3   0.508963 0.804068 0.262877 -0.740735
H44   H     H_    0.488253 0.877576 0.214914 0.223195
H45   H     H_    0.499210 0.885670 0.308069 0.231561
H46   H     H_    0.558912 0.799078 0.264471 0.214156
H47   H     H_    0.507054 0.527479 0.310247 0.181838
H48   H     H_    0.496173 0.526380 0.218661 0.175090

loop_
_geom_bond_atom_site_label_1
_geom_bond_atom_site_label_2
_ccdc_geom_bond_type
C42   C44   A    
C39   C41   A    
O17   V3    S    
O15   C55   A    
C62   H24   S    
O1    C3    A    
C47   H13   S    
O2    C4    A    
C2    O7    A    
C49   C67   S    
C57   H17   S    
C19   C21   T    
C37   C51   A    
O5    C3    A    
C50   C69   S    
C13   C19   S    
C28   C48   A    
C36   C38   A    
C29   H15   S    
C8    C10   A    
C26   C42   A    
C28   C50   A    
C69   H47   S    
C70   H46   S    
C33   C35   A    
C34   C36   A    
C31   C59   S    
O12   C56   A    
C38   C46   A    
C3    C22   S    
C25   C49   A    
O14   V4    S    
H9    C43   S    
C64   H29   S    
C48   H14   S    
C45   C63   S    
C61   C62   S    
C6    C8    A    
C11   C13   A    
C68   H39   S    
C41   C43   A    
O15   V3    S    
C66   H36   S    
C8    C18   S    
C1    C28   S    
C59   H22   S    
C2    C27   S    
O5    V1    S    
C33   C57   S    
O6    V2    S    
C38   C52   A    
C29   C51   A    
C27   C47   A    
C32   C61   S    
C60   H19   S    
C57   O21   D    
C30   H16   S    
C29   C31   A    
C9    C11   A    
C53   O18   A    
C30   C32   A    
C35   C37   A    
C12   C14   A    
O16   C56   A    
C34   C58   S    
O4    C2    A    
C67   H42   S    
O11   V4    S    
C6    C16   A    
C7    C17   S    
O16   V4    S    
C43   C45   A    
C64   H31   S    
C40   C42   A    
O4    V2    S    
C5    C7    A    
C63   H32   S    
C18   C24   T    
C4    C21   S    
C67   H43   S    
C25   H11   S    
O6    C4    A    
O13   V3    S    
C58   O22   D    
C65   H38   S    
C62   H25   S    
O1    V2    S    
H10   C44   S    
O20   V4    S    
O2    V1    S    
C51   C56   S    
C30   C52   A    
C44   C46   A    
O13   C53   A    
C39   C47   A    
C10   C12   A    
O19   V4    S    
C31   C33   A    
C25   C41   A    
C66   H34   S    
C14   C20   S    
C17   C23   T    
C67   C68   S    
C61   H28   S    
C26   C50   A    
O3    V1    S    
C37   C45   A    
O12   V3    S    
C5    H3    S    
C23   C54   S    
C10   H6    S    
C27   C49   A    
C6    H4    S    
O3    C1    A    
C54   O17   A    
C70   H44   S    
O18   V4    S    
C60   H20   S    
C9    H5    S    
C26   H12   S    
C35   C39   A    
C59   H23   S    
C36   C40   A    
C63   H33   S    
C1    O8    A    
C11   H7    S    
C5    C15   A    
C63   C64   S    
C12   H8    S    
C70   H45   S    
O19   V3    S    
C69   H48   S    
C68   H41   S    
C20   C22   T    
C58   H18   S    
C13   C15   A    
C32   C34   A    
C65   H37   S    
C62   H26   S    
C14   C16   A    
C40   C48   A    
O7    V1    S    
O20   V3    S    
C64   H30   S    
C69   C70   S    
C52   C55   S    
O11   C55   A    
C46   C65   S    
C7    C9    A    
C68   H40   S    
O9    V2    S    
C59   C60   S    
C66   H35   S    
O10   V1    S    
O14   C54   A    
O8    V2    S    
H1    C15   S    
H2    C16   S    
C61   H27   S    
C60   H21   S    
C24   C53   S    
C65   C66   S    
