data_str_m2_o10_o18_f0_pcu.sym.153
_audit_creation_date              2012-12-10T16:45:22-0500
_audit_creation_method            fapswitch 2.2
_symmetry_space_group_name_H-M    P1
_symmetry_Int_Tables_number       1
_space_group_crystal_system       triclinic
_cell_length_a                    7.429687
_cell_length_b                    8.696029
_cell_length_c                    15.694797
_cell_angle_alpha                 94.137546
_cell_angle_beta                  74.727446
_cell_angle_gamma                 103.238098
_cell_volume                      952.140410676

loop_
_atom_site_label
_atom_site_type_symbol
_atom_type_description
_atom_site_fract_x
_atom_site_fract_y
_atom_site_fract_z
_atom_type_partial_charge
C1    C     C_R   0.545099 0.800201 0.502655 0.887778
C2    C     C_R   0.454822 0.199795 0.497443 0.886263
C3    C     C_R   0.312453 0.304385 0.069821 0.409166
C4    C     C_R   0.740970 0.523809 0.907613 0.397588
C5    C     C_R   0.184634 0.258646 0.016374 -0.283869
C6    C     C_R   0.869967 0.565374 0.959927 -0.189187
C7    C     C_2   0.570465 0.968105 0.503980 -0.358218
C8    C     C_2   0.429339 0.031900 0.496266 -0.342896
C9    C     C_R   0.381544 0.480174 0.666559 0.812124
C10   C     C_R   0.617269 0.512257 0.332951 0.829491
C11   C     C_R   0.305502 0.439370 0.761255 -0.154150
C12   C     C_R   0.691260 0.519783 0.235656 -0.124820
C13   C     C_R   0.096869 0.268335 0.879979 -0.151080
C14   C     C_R   0.944799 0.586341 0.101655 -0.268747
C15   C     C_R   0.136702 0.322101 0.794001 0.432356
C16   C     C_R   0.887254 0.571746 0.194094 0.418252
C17   C     C_R   0.426790 0.497282 0.816807 -0.293611
C18   C     C_R   0.559806 0.475372 0.183717 -0.232381
C19   C     C_R   0.401197 0.426097 0.898185 0.071543
C20   C     C_R   0.618618 0.473828 0.090973 0.092965
C21   C     C_R   0.226308 0.319339 0.932123 0.019135
C22   C     C_R   0.811328 0.542372 0.050731 0.007266
C23   C     C_R   0.543542 0.458084 0.946831 -0.095737
C24   C     C_R   0.488864 0.414218 0.037522 -0.019391
Cu1   Cu    Cu3+1 0.322120 0.483240 0.490330 0.980704
Cu2   Cu    Cu3+1 0.677880 0.516760 0.509670 0.995041
H1    H     H_    0.051996 0.173102 0.040529 0.143756
H2    H     H_    0.019185 0.613544 0.928490 0.172585
H3    H     H_    0.409563 0.448850 0.216771 0.228479
H4    H     H_    0.545835 0.595137 0.793835 0.213472
H5    H     H_    0.966061 0.181297 0.904994 0.162604
H6    H     H_    0.093948 0.632848 0.069429 0.137392
H7    H     H_    0.706445 0.039570 0.511271 0.184218
H8    H     H_    0.293344 0.960441 0.488996 0.186049
H9    H     H_    0.003477 0.614856 0.569270 0.236649
H10   H     H_    0.996491 0.385083 0.430760 0.240560
N1    N     N_2   0.945180 0.542040 0.524240 -0.209694
N2    N     N_2   0.054820 0.457960 0.475760 -0.205968
O1    O     O_R   0.384450 0.714270 0.493720 -0.581988
O2    O     O_R   0.615550 0.285730 0.506280 -0.592207
O3    O     O_R   0.684880 0.742590 0.510050 -0.575054
O4    O     O_R   0.315120 0.257410 0.489950 -0.578047
O5    O     O_R   0.265540 0.477900 0.617090 -0.594992
O6    O     O_R   0.734460 0.522100 0.382910 -0.528630
O7    O     O_R   0.565970 0.506210 0.633420 -0.572806
O8    O     O_R   0.434030 0.493790 0.366580 -0.586258
O9    O     O_3   0.018508 0.613468 0.244420 -0.714330
H11   H     H_    0.148659 0.644977 0.204748 0.318787
O10   O     O_3   0.013823 0.248069 0.743947 -0.736318
H12   H     H_    0.003943 0.324815 0.703199 0.352376
O11   O     O_3   0.276495 0.228303 0.148907 -0.746702
H13   H     H_    0.148573 0.155903 0.161157 0.328696
O12   O     O_3   0.819333 0.532626 0.817810 -0.747737
H14   H     H_    0.754694 0.436716 0.790651 0.339522

loop_
_geom_bond_atom_site_label_1
_geom_bond_atom_site_label_2
_ccdc_geom_bond_type
Cu1   O4    S    
C10   O8    A    
C19   C23   A    
C23   C24   A    
Cu2   N1    S    
C9    O7    A    
N1    N2    D    
C6    H2    S    
C4    O12   S    
C7    H7    S    
O9    H11   S    
C13   C15   A    
Cu1   O5    S    
C11   C15   A    
H10   N2    S    
C13   C21   A    
C7    C8    D    
C18   H3    S    
C8    H8    S    
O12   H14   S    
Cu1   O1    S    
C20   C24   A    
C17   H4    S    
C9    C11   S    
Cu2   O2    S    
C3    C24   A    
C10   C12   S    
C2    O4    A    
C16   O9    S    
C1    O3    A    
C19   C21   A    
C20   C22   A    
C18   C20   A    
C15   O10   S    
C14   C22   A    
Cu1   N2    S    
C14   C16   A    
C9    O5    A    
C1    O1    A    
Cu2   O6    S    
O11   H13   S    
C6    C22   A    
C17   C19   A    
C2    O2    A    
C5    C21   A    
C4    C6    A    
O10   H12   S    
C12   C18   A    
C4    C23   A    
C3    O11   S    
C11   C17   A    
C1    C7    S    
Cu2   O7    S    
H9    N1    S    
Cu1   Cu2   S    
C5    H1    S    
C10   O6    A    
Cu1   O8    S    
C13   H5    S    
C2    C8    S    
C12   C16   A    
Cu2   O3    S    
C14   H6    S    
C3    C5    A    
