data_str_m4_o14_o14_f0_acs.sym.36
_audit_creation_date              2012-12-11T14:17:51-0500
_audit_creation_method            fapswitch 2.2
_symmetry_space_group_name_H-M    P1
_symmetry_Int_Tables_number       1
_space_group_crystal_system       triclinic
_cell_length_a                    11.245458
_cell_length_b                    11.256701
_cell_length_c                    19.0844
_cell_angle_alpha                 89.829891
_cell_angle_beta                  90.102046
_cell_angle_gamma                 119.906715
_cell_volume                      2094.1266849

loop_
_atom_site_label
_atom_site_type_symbol
_atom_type_description
_atom_site_fract_x
_atom_site_fract_y
_atom_site_fract_z
_atom_type_partial_charge
C1    C     C_R   0.520971 0.457382 0.146949 0.552806
C2    C     C_R   0.976162 0.394255 0.541220 -0.077206
C3    C     C_R   0.390497 0.968367 0.532843 -0.079039
C4    C     C_R   0.577337 0.609303 0.532777 -0.076411
C5    C     C_R   0.679175 0.898765 0.554621 -0.052935
C6    C     C_R   0.078649 0.760578 0.550783 -0.050817
C7    C     C_R   0.218680 0.329263 0.551675 -0.053310
C8    C     C_R   0.884967 0.669185 0.447434 -0.053683
C9    C     C_R   0.765822 0.083090 0.447782 -0.048194
C10   C     C_R   0.324875 0.235535 0.450533 -0.045489
C11   C     C_R   0.809049 0.952218 0.530176 -0.122102
C12   C     C_R   0.542678 0.063800 0.146899 0.552647
C13   C     C_R   0.036557 0.845220 0.524206 -0.126256
C14   C     C_R   0.146467 0.196554 0.530023 -0.112080
C15   C     C_R   0.943817 0.801745 0.469524 -0.110916
C16   C     C_R   0.851561 0.042268 0.474654 -0.127354
C17   C     C_R   0.196112 0.152221 0.475641 -0.117478
C18   C     C_R   0.523800 0.448099 0.356544 0.539713
C19   C     C_R   0.551095 0.073906 0.356159 0.543188
C20   C     C_R   0.879467 0.455511 0.360883 0.531639
C21   C     C_R   0.424669 0.543709 0.638967 0.521484
C22   C     C_R   0.072231 0.550075 0.644135 0.537684
C23   C     C_R   0.936278 0.478975 0.146937 0.557157
C24   C     C_R   0.457130 0.882545 0.639024 0.522513
C25   C     C_R   0.494121 0.974933 0.928374 0.000573
C26   C     C_R   0.025340 0.519235 0.928458 0.001565
C27   C     C_R   0.480810 0.505732 0.928414 0.000635
C28   C     C_R   0.997438 0.496594 0.075993 -0.002365
C29   C     C_R   0.499286 0.002880 0.075915 -0.001592
C30   C     C_R   0.503228 0.500972 0.075953 -0.001899
C31   C     C_R   0.408768 0.018081 0.960557 0.019708
C32   C     C_R   0.982241 0.390975 0.960935 0.019647
C33   C     C_R   0.609056 0.591062 0.960759 0.019743
C34   C     C_R   0.453214 0.521590 0.854263 0.546820
C35   C     C_R   0.982346 0.383080 0.035392 0.027901
C36   C     C_R   0.400851 0.018118 0.035012 0.028213
C37   C     C_R   0.616750 0.599276 0.035179 0.028154
C38   C     C_R   0.581023 0.958856 0.042750 -0.142094
C39   C     C_R   0.041370 0.622118 0.042543 -0.142784
C40   C     C_R   0.377708 0.419270 0.042638 -0.142327
C41   C     C_R   0.058019 0.633863 0.970619 -0.137664
C42   C     C_R   0.576224 0.942259 0.970830 -0.138244
C43   C     C_R   0.366081 0.423856 0.970689 -0.137896
C44   C     C_R   0.330189 0.060339 0.920705 -0.091592
C45   C     C_R   0.068554 0.546809 0.854304 0.542406
C46   C     C_R   0.939872 0.270344 0.921387 -0.091768
C47   C     C_R   0.729841 0.669357 0.921107 -0.091422
C48   C     C_R   0.966941 0.261546 0.066003 -0.086720
C49   C     C_R   0.294687 0.033647 0.065327 -0.087158
C50   C     C_R   0.738059 0.705489 0.065592 -0.086920
C51   C     C_R   0.233722 0.085126 0.952715 -0.131154
C52   C     C_R   0.914957 0.149214 0.953713 -0.131061
C53   C     C_R   0.850762 0.765868 0.953238 -0.131282
C54   C     C_R   0.931083 0.145872 0.025629 -0.140315
C55   C     C_R   0.214385 0.069095 0.024626 -0.140643
C56   C     C_R   0.478330 0.931500 0.854281 0.546858
C57   C     C_R   0.853798 0.785502 0.025077 -0.140433
C58   C     C_R   0.474045 0.924211 0.565182 -0.026963
C59   C     C_R   0.020195 0.521022 0.572276 -0.017645
C60   C     C_R   0.448832 0.529348 0.564386 -0.033990
C61   C     C_R   0.915424 0.468391 0.435815 -0.030967
C62   C     C_R   0.524291 0.025081 0.428365 -0.016521
C63   C     C_R   0.502945 0.475565 0.428843 -0.021017
C64   C     C_R   0.589613 0.940805 0.528414 0.024680
C65   C     C_R   0.012820 0.622369 0.532440 0.039320
C66   C     C_R   0.350973 0.415139 0.527011 0.030030
C67   C     C_R   0.398166 0.983630 0.460079 -0.078513
C68   C     C_R   0.929900 0.582069 0.473108 0.026450
C69   C     C_R   0.627686 0.019883 0.467859 0.034267
C70   C     C_R   0.395309 0.373913 0.468620 0.039953
C71   C     C_1   0.276621 0.925568 0.416916 0.199403
C72   C     C_1   0.052079 0.357147 0.427516 0.206280
C73   C     C_1   0.637387 0.722458 0.415777 0.199748
C74   C     C_1   0.913386 0.273737 0.585127 0.203441
C75   C     C_1   0.353682 0.052917 0.573901 0.208708
C76   C     C_1   0.694790 0.632245 0.574129 0.212774
C77   C     C_R   0.961526 0.386496 0.468267 -0.077365
C78   C     C_R   0.584373 0.602336 0.459843 -0.077018
Cr1   Cr    Cr6+3 0.768550 0.541320 0.250660 1.027439
Cr2   Cr    Cr6+3 0.458680 0.227230 0.250660 1.027886
Cr3   Cr    Cr6+3 0.772770 0.231450 0.250660 1.028793
Cr4   Cr    Cr6+3 0.541320 0.768550 0.749340 1.024794
Cr5   Cr    Cr6+3 0.227230 0.458680 0.749340 1.023461
Cr6   Cr    Cr6+3 0.231450 0.772770 0.749340 1.025446
H1    H     H_    0.652239 0.940141 0.072464 0.140189
H2    H     H_    0.987504 0.254676 0.120620 0.143861
H3    H     H_    0.267557 0.013403 0.119956 0.144325
H4    H     H_    0.744617 0.732768 0.120142 0.143661
H5    H     H_    0.874937 0.925675 0.557783 0.123657
H6    H     H_    0.077137 0.942892 0.548307 0.116777
H7    H     H_    0.054553 0.130388 0.557612 0.123599
H8    H     H_    0.920322 0.869421 0.441312 0.131982
H9    H     H_    0.948483 0.079824 0.449762 0.125100
H10   H     H_    0.137103 0.055276 0.451026 0.122696
H11   H     H_    0.172546 0.115131 0.921493 0.119535
H12   H     H_    0.059933 0.711871 0.072019 0.140546
H13   H     H_    0.884815 0.058166 0.922730 0.119527
H14   H     H_    0.941888 0.826845 0.922157 0.119231
H15   H     H_    0.914163 0.052793 0.050750 0.101255
H16   H     H_    0.138008 0.085850 0.049492 0.101840
H17   H     H_    0.946733 0.861868 0.050022 0.101646
H18   H     H_    0.654297 0.826811 0.595772 0.169814
H19   H     H_    0.163675 0.807260 0.585379 0.162892
H20   H     H_    0.172191 0.361155 0.590058 0.161821
H21   H     H_    0.809569 0.638951 0.407733 0.166780
H22   H     H_    0.812304 0.164233 0.411056 0.169268
H23   H     H_    0.287899 0.348145 0.072248 0.140321
H24   H     H_    0.366856 0.189880 0.416945 0.160586
H25   H     H_    0.098264 0.735153 0.948105 0.152216
H26   H     H_    0.637391 0.901988 0.948548 0.151793
H27   H     H_    0.264803 0.362716 0.948252 0.152161
H28   H     H_    0.343856 0.077123 0.864826 0.146751
H29   H     H_    0.923014 0.267271 0.865515 0.146064
H30   H     H_    0.733159 0.655428 0.865301 0.145807
N1    N     N_1   0.182777 0.879043 0.379791 -0.275060
N2    N     N_1   0.123711 0.336396 0.392582 -0.274239
N3    N     N_1   0.677170 0.814303 0.377530 -0.280669
N4    N     N_1   0.863711 0.181013 0.622932 -0.270595
N5    N     N_1   0.327596 0.120491 0.608971 -0.265006
N6    N     N_1   0.785020 0.648319 0.609672 -0.271356
O1    O     O_R   0.910960 0.572410 0.171010 -0.511178
O2    O     O_R   0.528530 0.639750 0.824400 -0.508915
O3    O     O_R   0.111220 0.471470 0.824400 -0.509805
O4    O     O_R   0.360250 0.888780 0.824400 -0.508086
O5    O     O_R   0.909330 0.572400 0.331540 -0.502229
O6    O     O_R   0.427600 0.336930 0.331540 -0.518664
O7    O     O_R   0.663070 0.090670 0.331540 -0.527493
O8    O     O_R   0.572400 0.909330 0.668460 -0.507297
O9    O     O_R   0.336930 0.427600 0.668460 -0.497865
O10   O     O_R   0.090670 0.663070 0.668460 -0.524914
O11   O     O_R   0.638240 0.528520 0.324410 -0.527942
O12   O     O_R   0.427590 0.338550 0.171010 -0.513243
O13   O     O_R   0.471480 0.109720 0.324410 -0.512122
O14   O     O_R   0.890280 0.361760 0.324410 -0.499371
O15   O     O_R   0.528520 0.638240 0.675590 -0.510577
O16   O     O_R   0.109720 0.471480 0.675590 -0.526062
O17   O     O_R   0.361760 0.890280 0.675590 -0.495140
O18   O     O_3   0.666667 0.333333 0.250630 -0.296373
O19   O     O_3   0.333333 0.666667 0.749370 -0.309345
O20   O     O_R   0.661450 0.089040 0.171010 -0.513836
O21   O     O_R   0.572410 0.910960 0.828990 -0.515857
O22   O     O_R   0.338550 0.427590 0.828990 -0.515466
O23   O     O_R   0.089040 0.661450 0.828990 -0.518485
O24   O     O_R   0.639750 0.528530 0.175600 -0.511169
O25   O     O_R   0.471470 0.111220 0.175600 -0.510619
O26   O     O_R   0.888780 0.360250 0.175600 -0.510045

loop_
_geom_bond_atom_site_label_1
_geom_bond_atom_site_label_2
_ccdc_geom_bond_type
C25   C31   A    
C47   H30   S    
C26   C32   A    
Cr2   O12   S    
C13   H6    S    
Cr3   O20   S    
C49   H3    S    
C10   H24   S    
C25   C56   S    
C1    O12   A    
C8    H21   S    
Cr5   O19   S    
Cr3   O14   S    
C39   C41   A    
C45   O3    A    
C48   C54   A    
C39   H12   S    
Cr1   O1    S    
C29   C36   A    
C16   H9    S    
C72   C77   S    
C62   C67   A    
C56   O4    A    
C19   O13   A    
C9    C16   A    
C9    C69   A    
C38   C42   A    
C12   C29   S    
C53   H14   S    
Cr2   O18   S    
C18   C63   S    
C19   C62   S    
C46   C52   A    
C52   H13   S    
Cr4   O15   S    
C62   C69   A    
C19   O7    A    
C20   C61   S    
C26   C45   S    
C15   H8    S    
C7    C14   A    
C28   C35   A    
C61   C77   A    
C21   O9    A    
C55   H16   S    
C73   C78   S    
C12   O20   A    
C3    C75   S    
C51   C55   A    
C2    C74   S    
C50   H4    S    
C47   C53   A    
Cr1   O5    S    
C60   C66   A    
C34   O2    A    
C41   H25   S    
C22   O10   A    
C14   C17   A    
C18   O11   A    
C43   H27   S    
Cr4   O21   S    
C35   C48   A    
C52   C54   A    
C6    C65   A    
C27   C34   S    
C58   C64   A    
Cr3   O18   S    
C74   N4    T    
C23   O26   A    
C73   N3    T    
C31   C44   A    
C38   H1    S    
C71   N1    T    
C32   C35   A    
C75   N5    T    
Cr6   O19   S    
C21   C60   S    
C23   O1    A    
C22   C59   S    
C53   C57   A    
C2    C59   A    
Cr6   O23   S    
C9    H22   S    
C49   C55   A    
C33   C37   A    
Cr2   O13   S    
C30   C37   A    
C22   O16   A    
C12   O25   A    
C29   C38   A    
C4    C78   A    
Cr4   O19   S    
C11   C16   A    
C11   H5    S    
Cr1   O24   S    
C63   C70   A    
C65   C68   A    
Cr1   O11   S    
C4    C60   A    
C64   C69   A    
C30   C40   A    
C76   N6    T    
C6    H19   S    
Cr4   O8    S    
Cr5   O16   S    
C40   H23   S    
C56   O21   A    
C10   C70   A    
C44   C51   A    
Cr2   O25   S    
Cr6   O17   S    
C8    C68   A    
C8    C15   A    
C7    H20   S    
C13   C15   A    
C33   C47   A    
C48   H2    S    
C54   H15   S    
C23   C28   S    
C44   H28   S    
C24   O8    A    
C5    H18   S    
C34   O22   A    
C46   H29   S    
C50   C57   A    
C32   C46   A    
C3    C67   A    
C25   C42   A    
Cr5   O22   S    
C5    C11   A    
C24   O17   A    
Cr6   O4    S    
C57   H17   S    
C72   N2    T    
C28   C39   A    
C20   O14   A    
C40   C43   A    
C42   H26   S    
C20   O5    A    
C1    O24   A    
C59   C65   A    
C7    C66   A    
C37   C50   A    
C61   C68   A    
C66   C70   A    
Cr2   O6    S    
Cr5   O9    S    
Cr6   O10   S    
C1    C30   S    
Cr4   O2    S    
C67   C71   S    
C14   H7    S    
C4    C76   S    
C3    C58   A    
C27   C43   A    
Cr1   O18   S    
C5    C64   A    
C24   C58   S    
Cr3   O26   S    
C27   C33   A    
C45   O23   A    
C2    C77   A    
C31   C36   A    
C17   H10   S    
C10   C17   A    
Cr5   O3    S    
C21   O15   A    
C18   O6    A    
C36   C49   A    
Cr3   O7    S    
C26   C41   A    
C51   H11   S    
C6    C13   A    
C63   C78   A    
