data_str_m12_o9_o13_f0_bcu.sym.92
_audit_creation_date              2012-12-11T17:43:43-0500
_audit_creation_method            fapswitch 2.2
_symmetry_space_group_name_H-M    P1
_symmetry_Int_Tables_number       1
_space_group_crystal_system       triclinic
_cell_length_a                    15.057316
_cell_length_b                    14.990069
_cell_length_c                    16.908356
_cell_angle_alpha                 108.779482
_cell_angle_beta                  106.239519
_cell_angle_gamma                 109.159288
_cell_volume                      3080.06763753

loop_
_atom_site_label
_atom_site_type_symbol
_atom_type_description
_atom_site_fract_x
_atom_site_fract_y
_atom_site_fract_z
_atom_type_partial_charge
C1    C     C_R   0.091649 0.278118 0.022751 -0.120026
C2    C     C_R   0.104827 0.075799 0.957855 -0.241431
C3    C     C_R   0.013284 0.890740 0.919901 0.063469
C4    C     C_R   0.009503 0.076775 0.923085 0.047238
C5    C     C_R   0.108283 0.983105 0.954293 0.032619
C6    C     C_R   0.918876 0.978348 0.863525 0.034418
C7    C     C_R   0.827783 0.002508 0.726019 0.540037
C8    C     C_R   0.292603 0.051844 0.073628 0.509207
C9    C     C_R   0.639280 0.929649 0.658320 -0.208347
C10   C     C_R   0.408616 0.991769 0.024495 -0.209667
C11   C     C_R   0.498822 0.704905 0.356318 -0.113614
C12   C     C_R   0.916926 0.712533 0.919720 -0.144022
C13   C     C_R   0.514095 0.419137 0.728230 -0.120856
C14   C     C_R   0.506608 0.688299 0.272809 -0.132901
C15   C     C_R   0.522845 0.441133 0.817687 -0.115055
C16   C     C_R   0.935705 0.450566 0.734627 -0.118672
C17   C     C_R   0.064394 0.480924 0.253551 -0.138906
C18   C     C_R   0.530083 0.607316 0.229848 0.109553
C19   C     C_R   0.553368 0.544996 0.881446 0.112304
C20   C     C_R   0.546663 0.544208 0.272734 -0.159352
C21   C     C_R   0.573717 0.626048 0.854202 -0.192227
C22   C     C_R   0.539010 0.561301 0.356395 -0.094190
C23   C     C_R   0.027849 0.464380 0.725463 0.063390
C24   C     C_R   0.566399 0.603863 0.765076 -0.125121
C25   C     C_R   0.515065 0.641497 0.398108 -0.098568
C26   C     C_R   0.536538 0.500406 0.702092 -0.099254
C27   C     C_R   0.621032 0.575923 0.128545 -0.237713
C28   C     C_R   0.478280 0.584327 0.988519 -0.231134
C29   C     C_R   0.629356 0.561928 0.045321 0.069280
C30   C     C_R   0.463116 0.587135 0.066683 0.058329
C31   C     C_R   0.557967 0.568206 0.975080 0.015576
C32   C     C_R   0.537426 0.589295 0.140606 0.025078
C33   C     C_R   0.735093 0.985378 0.660337 -0.125341
C34   C     C_R   0.973370 0.421009 0.255677 0.066956
C35   C     C_R   0.390319 0.054089 0.093287 -0.154788
C36   C     C_R   0.965557 0.379496 0.322511 0.130044
C37   C     C_R   0.036874 0.419161 0.638838 0.133048
C38   C     C_R   0.141637 0.437615 0.553931 -0.222048
C39   C     C_R   0.861258 0.305272 0.392901 -0.222163
C40   C     C_R   0.719676 0.215088 0.823362 -0.126060
C41   C     C_R   0.223838 0.797874 0.187545 -0.136737
C42   C     C_R   0.134874 0.452214 0.637085 -0.165848
C43   C     C_R   0.867766 0.323215 0.318594 -0.175721
C44   C     C_R   0.946398 0.355756 0.555256 -0.265510
C45   C     C_R   0.663485 0.218176 0.744887 0.064701
C46   C     C_R   0.056460 0.405482 0.396476 -0.276421
C47   C     C_R   0.952292 0.346865 0.472758 0.185923
C48   C     C_R   0.050641 0.392958 0.473085 0.186723
C49   C     C_R   0.554300 0.145967 0.678414 0.131793
C50   C     C_R   0.281274 0.900434 0.360451 0.122986
C51   C     C_R   0.388412 0.090469 0.444795 -0.223106
C52   C     C_R   0.403604 0.974583 0.608865 -0.243780
C53   C     C_R   0.319357 0.000221 0.361781 -0.163720
C54   C     C_R   0.495950 0.055604 0.684457 -0.176682
C55   C     C_R   0.297367 0.894376 0.444045 -0.284519
C56   C     C_R   0.240465 0.803952 0.274481 0.057151
C57   C     C_R   0.511370 0.161467 0.602090 -0.307799
C58   C     C_R   0.370314 0.983698 0.527127 0.194947
C59   C     C_R   0.420817 0.080583 0.526016 0.191831
C60   C     C_R   0.634960 0.893634 0.724224 -0.129309
C61   C     C_R   0.329474 0.926687 0.934809 -0.112967
C62   C     C_R   0.726504 0.911808 0.791626 -0.218632
C63   C     C_R   0.231912 0.924189 0.913382 -0.174850
C64   C     C_R   0.300693 0.599049 0.006221 -0.151832
C65   C     C_R   0.737584 0.463771 0.047974 -0.136885
C66   C     C_R   0.823935 0.965978 0.793708 -0.061775
C67   C     C_R   0.359722 0.567574 0.057163 0.057533
C68   C     C_R   0.212047 0.986185 0.981854 -0.067011
C69   C     C_R   0.726123 0.310958 0.747146 -0.135990
C70   C     C_R   0.218134 0.702585 0.265553 -0.127553
C71   C     C_R   0.296415 0.501242 0.080748 -0.124293
C72   C     C_R   0.754255 0.566397 0.976294 -0.109812
C73   C     C_R   0.109589 0.535493 0.812413 -0.129313
C74   C     C_R   0.891735 0.397375 0.176650 -0.141624
C75   C     C_R   0.917573 0.193110 0.947529 -0.119340
C76   C     C_R   0.088377 0.796006 0.999632 -0.136059
C77   C     C_R   0.006270 0.178911 0.959121 0.091115
C78   C     C_R   0.710027 0.537812 0.030617 0.046980
C79   C     C_R   0.006440 0.804277 0.946373 0.065048
C80   C     C_R   0.920803 0.886915 0.866640 -0.228683
H1    H     H_    0.173069 0.297754 0.049911 0.100724
H2    H     H_    0.596050 0.706309 0.902277 0.114592
H3    H     H_    0.551405 0.512129 0.388803 0.109804
H4    H     H_    0.583146 0.666667 0.744640 0.111064
H5    H     H_    0.679156 0.575548 0.183251 0.131634
H6    H     H_    0.420562 0.581712 0.931222 0.130195
H7    H     H_    0.132533 0.445421 0.399663 0.116370
H8    H     H_    0.870348 0.324272 0.554601 0.117880
H9    H     H_    0.795967 0.298944 0.261377 0.113901
H10   H     H_    0.206462 0.496582 0.699967 0.118041
H11   H     H_    0.217747 0.470850 0.554657 0.128096
H12   H     H_    0.839704 0.685067 0.868324 0.097090
H13   H     H_    0.785221 0.268112 0.391232 0.126532
H14   H     H_    0.856930 0.401045 0.681555 0.093816
H15   H     H_    0.142883 0.500557 0.296546 0.089542
H16   H     H_    0.737138 0.012751 0.608594 0.141615
H17   H     H_    0.452205 0.103604 0.162809 0.134535
H18   H     H_    0.553029 0.231244 0.596337 0.113977
H19   H     H_    0.263547 0.818860 0.444503 0.120236
H20   H     H_    0.524965 0.043162 0.744020 0.123233
H21   H     H_    0.303927 0.008566 0.298885 0.141676
H22   H     H_    0.424386 0.165529 0.443881 0.133435
H23   H     H_    0.509172 0.654562 0.462840 0.104083
H24   H     H_    0.364129 0.901454 0.611451 0.127501
H25   H     H_    0.568204 0.913804 0.605039 0.144981
H26   H     H_    0.484283 0.993761 0.040854 0.130955
H27   H     H_    0.560456 0.851046 0.722805 0.116412
H28   H     H_    0.343878 0.878421 0.881653 0.116344
H29   H     H_    0.721417 0.883230 0.842264 0.131460
H30   H     H_    0.171590 0.873949 0.843164 0.137017
H31   H     H_    0.689737 0.162390 0.850991 0.089492
H32   H     H_    0.233811 0.861416 0.168768 0.102978
H33   H     H_    0.328045 0.660763 0.986108 0.095072
H34   H     H_    0.529952 0.483023 0.632812 0.100655
H35   H     H_    0.714496 0.423308 0.086892 0.100679
H36   H     H_    0.703150 0.348561 0.706099 0.088729
H37   H     H_    0.223175 0.677363 0.318881 0.094650
H38   H     H_    0.319840 0.469387 0.127271 0.109008
H39   H     H_    0.751999 0.624529 0.952465 0.115061
H40   H     H_    0.191888 0.564030 0.831448 0.092714
H41   H     H_    0.811322 0.339668 0.148626 0.085623
H42   H     H_    0.837270 0.134299 0.907215 0.111166
H43   H     H_    0.170111 0.843132 0.023553 0.110852
H44   H     H_    0.849314 0.813149 0.827857 0.126366
H45   H     H_    0.480368 0.767086 0.388713 0.111961
H46   H     H_    0.177553 0.147691 0.990815 0.143123
H47   H     H_    0.972967 0.037588 0.752940 0.319512
H48   H     H_    0.204190 0.092068 0.127191 0.317792
H49   H     H_    0.488801 0.338913 0.678870 0.121142
H50   H     H_    0.494544 0.738766 0.241777 0.114141
H51   H     H_    0.505019 0.377437 0.837059 0.116456
H52   H     H_    0.564122 0.480919 0.240915 0.112946
N1    N     N_R   0.055660 0.348550 0.045620 -0.043363
N2    N     N_R   0.185200 0.638170 0.176300 -0.039865
N3    N     N_R   0.201680 0.494570 0.045620 -0.039522
N4    N     N_R   0.798320 0.505430 0.954380 -0.042870
N5    N     N_R   0.068420 0.560530 0.871650 -0.040318
N6    N     N_R   0.931580 0.439470 0.128350 -0.037972
N7    N     N_R   0.948070 0.295860 0.997670 -0.045991
N8    N     N_R   0.051930 0.704140 0.002330 -0.041399
N9    N     N_R   0.944340 0.651450 0.954380 -0.040431
N10   N     N_R   0.960830 0.507850 0.823700 -0.041791
N11   N     N_R   0.039170 0.492150 0.176300 -0.038732
N12   N     N_R   0.811290 0.303410 0.871650 -0.038449
N13   N     N_R   0.188710 0.696590 0.128350 -0.041175
N14   N     N_R   0.205200 0.552990 0.997670 -0.035837
N15   N     N_R   0.794800 0.447010 0.002330 -0.042253
N16   N     N_R   0.814800 0.361830 0.823700 -0.036703
Ni1   Ni    Ni4+2 0.119340 0.493420 0.109960 0.220154
Ni2   Ni    Ni4+2 0.880660 0.506580 0.890040 0.218083
Ni3   Ni    Ni4+2 0.872590 0.372590 0.000000 0.212695
Ni4   Ni    Ni4+2 0.127410 0.627410 0.000000 0.217131
O1    O     O_3   0.918531 0.051949 0.719273 -0.762748
O2    O     O_3   0.279113 0.112412 0.146000 -0.785550

loop_
_geom_bond_atom_site_label_1
_geom_bond_atom_site_label_2
_ccdc_geom_bond_type
N5    N10   A    
C69   H36   S    
C27   C29   A    
C75   H42   S    
C1    C77   A    
C14   C18   A    
C16   N10   A    
C76   C79   A    
N12   N16   A    
C19   C31   S    
H47   O1    S    
C51   H22   S    
C15   C19   A    
C74   N6    A    
C43   H9    S    
C18   C32   S    
C19   C21   A    
C24   C26   A    
C38   C42   A    
N12   Ni3   S    
N6    N11   A    
C71   N3    A    
C11   C14   A    
C57   C59   A    
C11   C25   A    
C70   H37   S    
C1    H1    S    
C49   C54   A    
C12   C79   A    
C49   C57   A    
C12   N9    A    
C60   C62   A    
C37   C42   A    
C27   H5    S    
C61   H28   S    
C39   H13   S    
C72   C78   A    
C29   C78   S    
C53   H21   S    
C22   C25   A    
N11   Ni1   S    
N5    Ni4   S    
C36   C46   A    
C10   C35   A    
C17   H15   S    
C65   N15   A    
C8    O2    S    
N8    Ni4   S    
C67   C71   A    
C30   C67   S    
C44   C47   A    
H48   O2    S    
C64   N14   A    
C3    C79   S    
C73   H40   S    
C9    C33   A    
C7    C33   A    
C54   H20   S    
C23   C73   A    
C5    C68   S    
C1    N1    A    
C3    C80   A    
C52   C54   A    
N9    Ni2   S    
C40   H31   S    
C76   N8    A    
C40   C45   A    
C46   C48   A    
C50   C53   A    
C62   C66   A    
C45   C69   A    
N4    N15   A    
C64   C67   A    
N1    Ni1   S    
N8    N9    A    
C4    C6    A    
C25   H23   S    
C39   C43   A    
C44   H8    S    
C58   C59   A    
N3    Ni1   S    
N2    Ni1   S    
C38   H11   S    
C41   H32   S    
C50   C56   S    
C42   H10   S    
C8    C35   A    
C20   H52   S    
C2    C4    A    
C26   H34   S    
C41   C56   A    
C6    C80   A    
C47   C48   A    
C7    O1    S    
C45   C49   S    
N3    N14   A    
C61   C63   A    
C15   H51   S    
C75   C77   A    
C60   H27   S    
C52   C58   A    
C34   C74   A    
N14   Ni4   S    
C2    H46   S    
C20   C22   A    
C8    C68   A    
C16   C23   A    
C56   C70   A    
C13   C15   A    
C28   H6    S    
C13   C26   A    
C10   H26   S    
C10   C61   A    
C51   C59   A    
C17   C34   A    
C21   C24   A    
C33   H16   S    
C39   C47   A    
C46   H7    S    
C80   H44   S    
N2    N13   A    
C63   C68   A    
C52   H24   S    
C65   C78   A    
C71   H38   S    
C11   H45   S    
C27   C32   A    
C76   H43   S    
C38   C48   A    
C12   H12   S    
C28   C31   A    
N16   Ni2   S    
C3    C5    A    
N4    Ni2   S    
N1    N7    A    
N6    Ni3   S    
C16   H14   S    
C50   C55   A    
C40   N12   A    
C17   N11   A    
C9    C60   A    
C22   H3    S    
N10   Ni2   S    
C37   C44   A    
C28   C30   A    
C65   H35   S    
C4    C77   S    
C29   C31   A    
C23   C37   S    
C7    C66   A    
C30   C32   A    
C62   H29   S    
C73   N5    A    
C63   H30   S    
N15   Ni3   S    
C72   H39   S    
N7    Ni3   S    
C34   C36   S    
C18   C20   A    
C24   H4    S    
C57   H18   S    
N13   Ni4   S    
C72   N4    A    
C2    C5    A    
C6    C66   S    
C74   H41   S    
C41   N13   A    
C21   H2    S    
C14   H50   S    
C55   C58   A    
C55   H19   S    
C70   N2    A    
C69   N16   A    
C13   H49   S    
C36   C43   A    
C75   N7    A    
C51   C53   A    
C35   H17   S    
C9    H25   S    
C64   H33   S    
