data_str_m3_o14_o14_f0_pcu.sym.61
_audit_creation_date              2012-12-10T17:41:02-0500
_audit_creation_method            fapswitch 2.2
_symmetry_space_group_name_H-M    P1
_symmetry_Int_Tables_number       1
_space_group_crystal_system       triclinic
_cell_length_a                    14.457718
_cell_length_b                    15.677162
_cell_length_c                    9.975766
_cell_angle_alpha                 89.97679
_cell_angle_beta                  90.523495
_cell_angle_gamma                 90.0069
_cell_volume                      2260.97251454

loop_
_atom_site_label
_atom_site_type_symbol
_atom_type_description
_atom_site_fract_x
_atom_site_fract_y
_atom_site_fract_z
_atom_type_partial_charge
C1    C     C_R   0.381219 0.879718 0.499790 0.919405
C2    C     C_R   0.692254 0.239659 0.405047 -0.186573
C3    C     C_R   0.193471 0.261379 0.403843 -0.186315
C4    C     C_R   0.165607 0.762338 0.450894 -0.212948
C5    C     C_R   0.690634 0.817946 0.497284 -0.088594
C6    C     C_R   0.696637 0.177261 0.504216 -0.116629
C7    C     C_R   0.196865 0.322858 0.504438 -0.117648
C8    C     C_R   0.190933 0.681825 0.497211 -0.089168
C9    C     C_R   0.334984 0.006068 0.148152 -0.223593
C10   C     C_R   0.834974 0.494529 0.148215 -0.222720
C11   C     C_R   0.249561 0.015497 0.089728 0.307379
C12   C     C_R   0.385039 0.123257 0.499622 0.931741
C13   C     C_R   0.749431 0.486127 0.089828 0.308020
C14   C     C_R   0.242616 0.019569 0.953546 -0.225239
C15   C     C_R   0.742396 0.482332 0.953662 -0.225526
C16   C     C_R   0.320255 0.010482 0.871630 0.357432
C17   C     C_R   0.820146 0.490413 0.871676 0.357240
C18   C     C_R   0.414219 0.004638 0.928645 0.071879
C19   C     C_R   0.914182 0.495700 0.928652 0.072206
C20   C     C_R   0.417082 0.003880 0.073871 0.070658
C21   C     C_R   0.917061 0.496416 0.073886 0.070430
C22   C     C_R   0.579192 0.995585 0.072034 -0.072464
C23   C     C_R   0.884911 0.376830 0.499663 0.931038
C24   C     C_R   0.079195 0.504284 0.072040 -0.072624
C25   C     C_R   0.623939 0.116035 0.501203 0.828704
C26   C     C_R   0.620764 0.881256 0.499723 0.828264
C27   C     C_R   0.120943 0.618594 0.499696 0.828225
C28   C     C_R   0.124012 0.384000 0.501277 0.829157
C29   C     C_R   0.579158 0.995064 0.929722 -0.097669
C30   C     C_R   0.079155 0.504858 0.929743 -0.097764
C31   C     C_R   0.415526 0.265902 0.682996 -0.163212
C32   C     C_R   0.437782 0.711762 0.587803 -0.196754
C33   C     C_R   0.938831 0.789312 0.580363 -0.195977
C34   C     C_R   0.881169 0.620247 0.499763 0.919347
C35   C     C_R   0.916358 0.233092 0.680680 -0.164376
C36   C     C_R   0.420365 0.326993 0.783836 -0.120202
C37   C     C_R   0.465779 0.628327 0.614499 -0.112735
C38   C     C_R   0.967187 0.873107 0.603226 -0.111865
C39   C     C_R   0.922205 0.170808 0.779714 -0.119587
C40   C     C_R   0.904923 0.939842 0.584958 -0.104897
C41   C     C_R   0.852003 0.111166 0.792164 -0.155915
C42   C     C_R   0.349790 0.386153 0.796855 -0.158189
C43   C     C_R   0.403782 0.561350 0.596674 -0.106759
C44   C     C_R   0.813048 0.922619 0.550257 -0.187757
C45   C     C_R   0.257885 0.198164 0.401698 -0.162760
C46   C     C_R   0.777443 0.111854 0.702666 -0.205637
C47   C     C_R   0.276014 0.386331 0.705995 -0.205109
C48   C     C_R   0.312436 0.578049 0.558465 -0.186217
C49   C     C_R   0.782846 0.837989 0.530723 0.104830
C50   C     C_R   0.769363 0.175122 0.601371 0.109436
C51   C     C_R   0.268846 0.324189 0.602912 0.110316
C52   C     C_R   0.282545 0.662355 0.534868 0.105602
C53   C     C_R   0.337757 0.261301 0.595545 0.098806
C54   C     C_R   0.346766 0.729118 0.542734 0.090171
C55   C     C_R   0.847210 0.771359 0.538771 0.089453
C56   C     C_R   0.229662 0.826842 0.451524 -0.142516
C57   C     C_R   0.838052 0.238254 0.594357 0.098256
C58   C     C_R   0.327458 0.196375 0.498586 -0.111209
C59   C     C_R   0.318443 0.810740 0.499989 -0.087731
C60   C     C_R   0.818288 0.689153 0.499935 -0.088872
C61   C     C_R   0.827018 0.303931 0.498724 -0.109677
C62   C     C_R   0.728674 0.672297 0.455592 -0.138846
C63   C     C_R   0.756604 0.302977 0.403084 -0.162346
C64   C     C_R   0.664536 0.736742 0.455138 -0.212085
Cl1   Cl    Cl    0.273691 0.999314 0.709868 -0.632809
Cl2   Cl    Cl    0.773669 0.500420 0.709668 -0.634574
Cl3   Cl    Cl    0.149247 0.017877 0.187995 -0.666307
Cl4   Cl    Cl    0.649145 0.484414 0.188191 -0.665751
H1    H     H_    0.251540 0.148811 0.326383 0.204730
H2    H     H_    0.488266 0.761892 0.600171 0.145683
H3    H     H_    0.989363 0.739276 0.593193 0.143720
H4    H     H_    0.974752 0.275527 0.671330 0.163461
H5    H     H_    0.479611 0.329089 0.850921 0.159634
H6    H     H_    0.536306 0.615454 0.645849 0.172556
H7    H     H_    0.038117 0.886397 0.632054 0.173418
H8    H     H_    0.981932 0.168193 0.845847 0.159859
H9    H     H_    0.928174 0.004968 0.596906 0.167313
H10   H     H_    0.856975 0.062047 0.868219 0.156425
H11   H     H_    0.353974 0.434389 0.874327 0.155927
H12   H     H_    0.209742 0.889780 0.416596 0.199330
H13   H     H_    0.426926 0.496441 0.611448 0.166852
H14   H     H_    0.766662 0.975530 0.533393 0.118869
H15   H     H_    0.729151 0.060375 0.713294 0.162279
H16   H     H_    0.227662 0.437615 0.717235 0.162493
H17   H     H_    0.266324 0.524926 0.541832 0.118795
H18   H     H_    0.594554 0.723388 0.421696 0.165461
H19   H     H_    0.636633 0.241364 0.331369 0.184730
H20   H     H_    0.138500 0.260207 0.329124 0.185615
H21   H     H_    0.096225 0.775157 0.414335 0.166645
H22   H     H_    0.644368 0.991940 0.125873 0.144002
H23   H     H_    0.708232 0.608867 0.423688 0.199914
H24   H     H_    0.144377 0.507835 0.125876 0.143830
H25   H     H_    0.333747 0.000144 0.253414 0.241543
H26   H     H_    0.833811 0.499961 0.253515 0.241563
H27   H     H_    0.749650 0.353002 0.328909 0.204311
H28   H     H_    0.173291 0.025619 0.911594 0.217534
H29   H     H_    0.672983 0.476920 0.911796 0.217628
H30   H     H_    0.644174 0.990267 0.877863 0.129206
H31   H     H_    0.144165 0.509754 0.877947 0.128526
H32   H     H_    0.474272 0.223942 0.673225 0.163582
N1    N     N_R   0.498810 1.000000 0.142780 -0.104133
N2    N     N_R   0.998810 0.500000 0.142780 -0.104121
N3    N     N_R   0.498740 1.000000 0.857170 -0.102909
N4    N     N_R   0.998740 0.500000 0.857170 -0.102681
O1    O     O_R   0.408390 0.908380 0.614690 -0.554183
O2    O     O_R   0.591620 0.908390 0.614640 -0.627768
O3    O     O_R   0.091620 0.591610 0.614640 -0.627001
O4    O     O_R   0.091620 0.408390 0.614640 -0.645324
O5    O     O_R   0.591610 0.091610 0.385310 -0.614166
O6    O     O_R   0.591610 0.908390 0.385310 -0.607016
O7    O     O_R   0.091610 0.591610 0.385310 -0.607387
O8    O     O_R   0.091610 0.408390 0.385310 -0.614117
O9    O     O_R   0.408390 0.091620 0.614690 -0.568246
O10   O     O_R   0.908390 0.408380 0.614690 -0.567538
O11   O     O_R   0.908390 0.591620 0.614690 -0.553884
O12   O     O_R   0.408370 0.908380 0.385360 -0.641372
O13   O     O_R   0.408370 0.091620 0.385360 -0.649794
O14   O     O_R   0.908370 0.408380 0.385360 -0.649651
O15   O     O_R   0.908370 0.591620 0.385360 -0.641139
O16   O     O_R   0.591620 0.091610 0.614640 -0.644676
Zn1   Zn    Zn3+2 0.500010 1.000000 0.653130 0.980409
Zn2   Zn    Zn3+2 0.000010 0.500000 0.653130 0.980820
Zn3   Zn    Zn3+2 0.499980 1.000000 0.346870 0.954277
Zn4   Zn    Zn3+2 0.999980 0.500000 0.346870 0.954318

loop_
_geom_bond_atom_site_label_1
_geom_bond_atom_site_label_2
_ccdc_geom_bond_type
C44   C49   A    
C33   C55   A    
C38   C40   A    
C37   H6    S    
O12   Zn3   S    
C36   C42   A    
C4    C8    A    
C26   O2    A    
C23   O14   A    
C39   C41   A    
C22   C29   A    
O15   Zn4   S    
C28   O8    A    
C17   Cl2   S    
N1    Zn3   S    
C22   N1    A    
C29   H30   S    
C19   C21   A    
O8    Zn4   S    
C48   C52   A    
C3    C7    A    
C1    C59   S    
C11   C14   A    
C46   H15   S    
C6    C25   S    
N4    Zn2   S    
C10   H26   S    
C63   H27   S    
C29   N3    A    
C60   C62   A    
C64   H18   S    
C61   C63   A    
C62   C64   A    
C52   C54   A    
C41   C46   A    
C1    O12   A    
C43   C48   A    
C8    C52   A    
C31   C36   A    
C24   N2    A    
C14   H28   S    
C25   O5    A    
C38   H7    S    
C12   C58   S    
C3    H20   S    
C27   O7    A    
C42   H11   S    
O11   Zn2   S    
C55   C60   A    
C4    C56   A    
C34   C60   S    
C5    C49   A    
C2    C6    A    
C15   H29   S    
N2    Zn4   S    
C24   H24   S    
C32   C54   A    
C11   Cl3   S    
C54   C59   A    
C10   C21   A    
C45   C58   A    
C45   H1    S    
C41   H10   S    
O5    Zn3   S    
C47   C51   A    
C20   N1    A    
C34   O11   A    
C32   C37   A    
C30   H31   S    
C3    C45   A    
C6    C50   A    
C7    C28   S    
C12   O13   A    
C5    C64   A    
C51   C53   A    
C31   H32   S    
C37   C43   A    
C35   C39   A    
O6    Zn3   S    
C19   N4    A    
C9    C20   A    
C27   O3    A    
C62   H23   S    
C22   H22   S    
O1    Zn1   S    
C2    H19   S    
O14   Zn4   S    
C47   H16   S    
C31   C53   A    
C9    C11   A    
C21   N2    A    
C35   H4    S    
C13   C15   A    
C43   H13   S    
C14   C16   A    
N3    Zn1   S    
C25   O16   A    
C9    H25   S    
O16   Zn1   S    
C4    H21   S    
C23   C61   S    
C34   O15   A    
C15   C17   A    
C26   O6    A    
C2    C63   A    
O7    Zn4   S    
C40   H9    S    
C50   C57   A    
O4    Zn2   S    
C10   C13   A    
C32   H2    S    
C53   C58   A    
C57   C61   A    
C46   C50   A    
C44   H14   S    
C33   C38   A    
C56   H12   S    
C56   C59   A    
C35   C57   A    
O13   Zn3   S    
C7    C51   A    
C49   C55   A    
C23   O10   A    
C39   H8    S    
C18   N3    A    
C28   O4    A    
O2    Zn1   S    
C17   C19   A    
C12   O9    A    
C18   C20   A    
C42   C47   A    
C24   C30   A    
C36   H5    S    
C33   H3    S    
C5    C26   S    
O10   Zn2   S    
C40   C44   A    
O9    Zn1   S    
C16   C18   A    
C30   N4    A    
C8    C27   S    
C48   H17   S    
C16   Cl1   S    
O3    Zn2   S    
C1    O1    A    
C13   Cl4   S    
