data_str_m12_o9_o13_f0_bcu.sym.224
_audit_creation_date              2013-03-05T15:57:56-0500
_audit_creation_method            fapswitch 2.2
_symmetry_space_group_name_H-M    P1
_symmetry_Int_Tables_number       1
_space_group_crystal_system       triclinic
_cell_length_a                    15.125923
_cell_length_b                    15.067035
_cell_length_c                    16.905289
_cell_angle_alpha                 108.690292
_cell_angle_beta                  105.897978
_cell_angle_gamma                 109.28258
_cell_volume                      3118.7163309

loop_
_atom_site_label
_atom_site_type_symbol
_atom_site_description
_atom_site_fract_x
_atom_site_fract_y
_atom_site_fract_z
_atom_type_partial_charge
C1    C     C_R   0.089877 0.276288 0.025451 -0.098079
C2    C     C_R   0.916465 0.711323 0.919687 -0.117980
H1    H     H_    0.170406 0.294252 0.052468 0.108979
H2    H     H_    0.839480 0.683037 0.868862 0.121499
N1    N     N_R   0.055660 0.348550 0.045620 -0.047774
N2    N     N_R   0.944340 0.651450 0.954380 -0.040811
C3    C     C_R   0.938473 0.453117 0.734840 -0.061075
C4    C     C_R   0.062576 0.475466 0.250605 -0.103125
H3    H     H_    0.862419 0.405165 0.680159 0.109447
H4    H     H_    0.137881 0.485457 0.288247 0.085052
N3    N     N_R   0.960830 0.507850 0.823700 -0.030705
N4    N     N_R   0.039170 0.492150 0.176300 -0.052157
C5    C     C_R   0.735720 0.204963 0.814664 -0.124680
C6    C     C_R   0.217603 0.795959 0.186022 -0.164821
H5    H     H_    0.706873 0.142858 0.833447 0.116848
H6    H     H_    0.231177 0.860944 0.168969 0.136764
N5    N     N_R   0.811290 0.303410 0.871650 -0.050659
N6    N     N_R   0.188710 0.696590 0.128350 -0.049701
C7    C     C_R   0.299916 0.596739 0.004335 -0.156867
C8    C     C_R   0.732598 0.456956 0.043291 -0.147752
H7    H     H_    0.327728 0.655170 0.981190 0.096493
H8    H     H_    0.708949 0.414665 0.080801 0.107952
N7    N     N_R   0.205200 0.552990 0.997670 -0.034890
N8    N     N_R   0.794800 0.447010 0.002330 -0.046658
C9    C     C_R   0.737714 0.302926 0.739943 -0.020230
C10   C     C_R   0.218825 0.702655 0.265284 -0.022167
N9    N     N_R   0.814800 0.361830 0.823700 -0.038560
N10   N     N_R   0.185200 0.638170 0.176300 -0.079942
C11   C     C_R   0.294759 0.499418 0.079390 -0.126828
C12   C     C_R   0.743479 0.556194 0.967702 -0.076341
H9    H     H_    0.317577 0.466328 0.124762 0.111719
H10   H     H_    0.731866 0.606546 0.936925 0.108171
N11   N     N_R   0.201680 0.494570 0.045620 -0.041757
N12   N     N_R   0.798320 0.505430 0.954380 -0.035589
C13   C     C_R   0.110448 0.537253 0.812771 -0.129212
C14   C     C_R   0.891572 0.396466 0.176353 -0.136478
H11   H     H_    0.192297 0.566082 0.831850 0.095247
H12   H     H_    0.811429 0.340006 0.149052 0.087337
N13   N     N_R   0.068420 0.560530 0.871650 -0.047528
N14   N     N_R   0.931580 0.439470 0.128350 -0.040384
C15   C     C_R   0.916925 0.193310 0.953489 -0.126488
C16   C     C_R   0.087343 0.795340 0.998591 -0.097778
H13   H     H_    0.837553 0.136686 0.919431 0.112195
H14   H     H_    0.168478 0.844251 0.022873 0.110490
N15   N     N_R   0.948070 0.295860 0.997670 -0.045845
N16   N     N_R   0.051930 0.704140 0.002330 -0.050980
C17   C     C_R   0.003512 0.177082 0.965060 0.084313
C18   C     C_R   0.005055 0.802113 0.945024 0.067763
C19   C     C_R   0.030315 0.467554 0.726023 0.025289
C20   C     C_R   0.972359 0.416974 0.253585 0.068398
C21   C     C_R   0.693454 0.202656 0.730616 -0.040174
C22   C     C_R   0.233215 0.801374 0.271994 0.029722
C23   C     C_R   0.357129 0.563888 0.054430 0.056870
C24   C     C_R   0.699372 0.524749 0.021351 0.034474
C25   C     C_R   0.916352 0.884381 0.871307 -0.243738
C26   C     C_R   0.098526 0.071285 0.955510 -0.127447
H15   H     H_    0.844665 0.812083 0.836561 0.137232
H16   H     H_    0.170314 0.142242 0.984348 0.118598
C27   C     C_R   0.009710 0.887208 0.918118 0.048941
C28   C     C_R   0.003400 0.073630 0.928727 0.100402
C29   C     C_R   0.102986 0.978308 0.948745 0.111142
C30   C     C_R   0.911730 0.975678 0.873552 0.099878
C31   C     C_R   0.778644 0.955936 0.730448 0.369541
C32   C     C_R   0.292004 0.048313 0.054031 0.342705
Ni1   Ni    Ni4+2 0.119340 0.493420 0.109960 0.208843
Ni2   Ni    Ni4+2 0.880660 0.506580 0.890040 0.286576
Ni3   Ni    Ni4+2 0.872590 0.372590 0.000000 0.210702
Ni4   Ni    Ni4+2 0.127410 0.627410 0.000000 0.211315
C33   C     C_R   0.600786 0.902304 0.712957 -0.146255
C34   C     C_R   0.396634 0.979620 0.992891 -0.164167
H17   H     H_    0.534934 0.705479 0.469448 0.117458
H18   H     H_    0.464602 0.357867 0.600066 0.106353
C35   C     C_R   0.513906 0.735090 0.350932 -0.119610
C36   C     C_R   0.484202 0.333653 0.721250 -0.116093
H19   H     H_    0.497850 0.800093 0.379290 0.126356
H20   H     H_    0.469481 0.252947 0.686243 0.102009
C37   C     C_R   0.513542 0.704545 0.263492 -0.149067
C38   C     C_R   0.505676 0.378435 0.814853 -0.114915
H21   H     H_    0.497937 0.747466 0.225402 0.111962
H22   H     H_    0.506605 0.331328 0.851562 0.111100
C39   C     C_R   0.534007 0.619701 0.225953 0.113315
C40   C     C_R   0.522865 0.482721 0.859994 0.119395
C41   C     C_R   0.555432 0.566737 0.277949 -0.146425
C42   C     C_R   0.519149 0.541625 0.810432 -0.197216
H23   H     H_    0.570863 0.500838 0.250460 0.125896
H24   H     H_    0.531169 0.621804 0.843979 0.114185
C43   C     C_R   0.555593 0.597604 0.365357 -0.077321
C44   C     C_R   0.499069 0.496918 0.717177 -0.075209
H25   H     H_    0.571683 0.556178 0.404797 0.125968
H26   H     H_    0.496438 0.542634 0.679344 0.109671
C45   C     C_R   0.534829 0.681690 0.401808 -0.059139
C46   C     C_R   0.480990 0.392777 0.672476 -0.019621
C47   C     C_R   0.615213 0.570741 0.120091 -0.231141
C48   C     C_R   0.457196 0.546639 0.970294 -0.231857
H27   H     H_    0.679005 0.582367 0.177792 0.138179
H28   H     H_    0.393078 0.531652 0.910717 0.135151
C49   C     C_R   0.615039 0.540377 0.032652 0.067537
C50   C     C_R   0.454159 0.572398 0.056003 0.063033
C51   C     C_R   0.535078 0.527177 0.956606 0.012550
C52   C     C_R   0.533829 0.586965 0.133012 0.023793
C53   C     C_R   0.674204 0.924989 0.677754 -0.225196
C54   C     C_R   0.387659 0.048473 0.064866 -0.218489
C55   C     C_R   0.965752 0.375437 0.320682 0.121469
C56   C     C_R   0.039767 0.423082 0.639454 0.138778
C57   C     C_R   0.143154 0.442109 0.553487 -0.206031
C58   C     C_R   0.864226 0.302077 0.393368 -0.207656
C59   C     C_R   0.136943 0.458281 0.637050 -0.159437
C60   C     C_R   0.869375 0.318134 0.317799 -0.169437
C61   C     C_R   0.950043 0.356857 0.556389 -0.255736
C62   C     C_R   0.056872 0.404446 0.395113 -0.243372
C63   C     C_R   0.955147 0.346686 0.473308 0.182570
C64   C     C_R   0.052299 0.394056 0.472756 0.177678
H29   H     H_    0.132195 0.445836 0.398246 0.126298
H30   H     H_    0.874761 0.323129 0.556116 0.112773
H31   H     H_    0.797686 0.291690 0.260305 0.117343
H32   H     H_    0.208011 0.505135 0.699517 0.114180
H33   H     H_    0.218434 0.476571 0.553517 0.131690
H34   H     H_    0.789092 0.263923 0.392428 0.131497
C65   C     C_R   0.618672 0.113907 0.645355 0.124680
C66   C     C_R   0.297626 0.897312 0.355627 0.140837
C67   C     C_R   0.336184 0.987709 0.516026 -0.197325
C68   C     C_R   0.578345 0.031128 0.484200 -0.245528
C69   C     C_R   0.263661 0.923159 0.424898 -0.057198
C70   C     C_R   0.650747 0.088544 0.574732 -0.183334
C71   C     C_R   0.401745 0.941576 0.374493 -0.291341
C72   C     C_R   0.514800 0.078475 0.627524 -0.312644
C73   C     C_R   0.474116 0.999821 0.464811 0.191067
C74   C     C_R   0.441426 0.022181 0.536694 0.187862
H35   H     H_    0.649149 0.918072 0.608726 0.172607
H36   H     H_    0.455227 0.100684 0.129949 0.158138
H37   H     H_    0.492286 0.100783 0.683632 0.130310
H38   H     H_    0.426236 0.919034 0.319667 0.125639
H39   H     H_    0.732291 0.119051 0.589798 0.158508
H40   H     H_    0.182136 0.886555 0.409268 0.129120
H41   H     H_    0.310226 0.005013 0.570262 0.132658
H42   H     H_    0.603771 0.013230 0.429618 0.143193
H43   H     H_    0.521065 0.879734 0.671764 0.151191
H44   H     H_    0.470506 0.979936 0.002445 0.123550
C75   C     C_R   0.629696 0.907450 0.800545 -0.115935
C76   C     C_R   0.310494 0.909951 0.908920 -0.103021
H45   H     H_    0.572370 0.888529 0.827290 0.115568
H46   H     H_    0.317671 0.856540 0.853315 0.115746
C77   C     C_R   0.732042 0.934805 0.853000 -0.227661
C78   C     C_R   0.215235 0.909581 0.896226 -0.164995
H47   H     H_    0.752532 0.935322 0.919847 0.140504
H48   H     H_    0.149462 0.855939 0.830065 0.144001
C79   C     C_R   0.808022 0.961238 0.819903 -0.056789
C80   C     C_R   0.204690 0.978382 0.967896 -0.078677
N17   N     N_R   0.851213 0.976657 0.690362 0.230411
O1    O     O_R   0.948369 0.043488 0.741648 -0.408752
O2    O     O_R   0.818435 0.936628 0.601134 -0.405436
N18   N     N_R   0.284302 0.116220 0.131316 0.220926
O3    O     O_R   0.200824 0.085473 0.144541 -0.416540
O4    O     O_R   0.364947 0.203936 0.194657 -0.424182
C81   C     C_2   0.689103 0.344172 0.682195 0.424966
H49   H     H_    0.625494 0.290348 0.614621 0.029761
O5    O     O_2   0.718156 0.438885 0.710757 -0.593080
C82   C     C_2   0.264723 0.680230 0.340839 0.468261
H50   H     H_    0.288551 0.618590 0.326595 0.001290
O6    O     O_2   0.277867 0.730613 0.419365 -0.588848

loop_
_geom_bond_atom_site_label_1
_geom_bond_atom_site_label_2
_geom_bond_distance
_ccdc_geom_bond_type
C33   C75   1.392478 A    
C41   C43   1.398787 A    
C34   C76   1.393937 A    
C43   C45   1.397112 A    
C81   O5    1.220934 D    
C15   H13   1.063355 S    
N13   Ni4   1.861120 S    
C6    N6    1.334929 A    
C7    N7    1.319087 A    
C63   C64   1.409984 A    
C78   C80   1.406457 A    
N12   Ni2   1.864013 S    
C19   C56   1.469903 S    
N11   Ni1   1.864012 S    
C65   C70   1.397926 A    
C3    N3    1.339625 A    
C12   C24   1.374866 A    
C36   H20   1.079921 S    
C70   H39   1.084396 S    
C32   N18   1.439714 S    
C55   C62   1.404809 A    
C1    N1    1.341821 A    
C72   H37   1.084841 S    
C60   H31   1.080892 S    
C13   H11   1.077839 S    
C29   C80   1.482279 S    
C42   H24   1.083253 S    
C25   C27   1.395909 A    
N17   O2    1.301790 A    
C16   N16   1.329368 A    
C56   C61   1.404602 A    
H18   C46   1.082367 S    
C38   H22   1.083143 S    
C9    C81   1.475553 S    
C48   C50   1.392819 A    
N6    Ni4   1.861230 S    
C25   C30   1.389267 A    
C11   N11   1.333595 A    
C28   C30   1.424218 A    
C40   C51   1.483968 S    
C36   C46   1.397563 A    
C68   C73   1.393594 A    
C8    N8    1.330678 A    
C31   N17   1.441652 S    
N8    Ni3   1.873979 S    
C49   C51   1.407309 A    
C17   C28   1.480177 S    
C5    C21   1.372870 A    
C75   C77   1.394661 A    
C6    C22   1.377675 A    
C44   C46   1.396904 A    
N7    N11   1.372838 A    
N14   Ni3   1.861118 S    
N15   Ni3   1.873177 S    
C21   C65   1.420442 S    
C24   C49   1.422044 S    
C55   C60   1.405634 A    
N3    Ni2   1.863361 S    
C31   C53   1.408157 A    
C7    C23   1.364243 A    
C20   C55   1.471073 S    
C47   H27   1.084653 S    
C32   C80   1.420854 A    
C82   O6    1.219806 D    
C35   H19   1.080744 S    
C57   H33   1.084085 S    
C2    N2    1.338046 A    
C16   H14   1.072621 S    
C31   C79   1.421893 A    
C39   C41   1.406707 A    
C58   C63   1.399495 A    
C37   H21   1.083058 S    
C33   H43   1.082591 S    
N5    Ni3   1.861231 S    
C27   C29   1.417042 A    
C12   N12   1.317133 A    
C69   H40   1.083302 S    
N5    N9    1.372841 A    
N3    N13   1.395465 A    
C14   N14   1.338532 A    
N6    N10   1.372841 A    
C3    C19   1.390689 A    
C67   C74   1.399600 A    
C8    C24   1.383193 A    
C66   C71   1.386222 A    
C1    C17   1.408811 A    
C2    C18   1.396325 A    
N1    N15   1.395465 A    
N8    N12   1.372840 A    
C26   C28   1.401253 A    
C1    H1    1.078798 S    
C42   C44   1.397605 A    
N7    Ni4   1.873979 S    
N4    N14   1.395466 A    
C2    H2    1.079479 S    
C9    C21   1.370036 A    
C13   C19   1.386029 A    
C10   C22   1.391804 A    
C78   H48   1.083488 S    
C57   C59   1.389603 A    
C38   C40   1.404228 A    
C47   C52   1.390928 A    
C37   C39   1.407745 A    
C4    N4    1.335652 A    
C68   H42   1.084206 S    
C34   C54   1.396296 A    
C15   C17   1.383900 A    
C16   C18   1.380323 A    
C67   H41   1.083711 S    
C48   H28   1.086476 S    
C62   H29   1.079957 S    
C35   C45   1.396347 A    
C61   H30   1.080919 S    
C22   C66   1.429356 S    
N1    Ni1   1.841502 S    
C41   H23   1.083074 S    
C57   C64   1.399090 A    
C44   H26   1.082406 S    
C32   C54   1.406851 A    
C34   H44   1.082490 S    
C40   C42   1.405915 A    
C30   C79   1.483022 S    
C5    H5    1.078653 S    
C82   H50   1.084314 S    
C6    H6    1.079121 S    
N16   Ni4   1.873178 S    
C8    H8    1.081116 S    
C68   C70   1.377516 A    
C73   C74   1.418279 A    
C47   C49   1.399269 A    
C77   C79   1.409002 A    
C14   C20   1.382514 A    
C18   C27   1.478991 S    
C77   H47   1.083536 S    
C72   C74   1.385246 A    
N2    N16   1.395466 A    
C7    H7    1.082344 S    
C76   C78   1.395257 A    
N18   O4    1.301503 A    
C66   C69   1.398712 A    
C76   H46   1.082503 S    
C39   C52   1.487298 S    
C33   C53   1.394991 A    
C23   C50   1.422437 S    
C9    N9    1.326181 A    
N4    Ni1   1.863363 S    
C10   N10   1.335416 A    
C5    N5    1.340126 A    
C25   H15   1.080860 S    
N10   Ni1   1.841763 S    
C11   H9    1.081541 S    
N9    Ni2   1.841762 S    
C15   N15   1.324408 A    
N17   O1    1.300148 A    
C12   H10   1.080765 S    
C75   H45   1.082454 S    
C71   H38   1.086776 S    
C11   C23   1.373741 A    
C48   C51   1.364303 A    
C13   N13   1.337186 A    
C61   C63   1.389727 A    
C14   H12   1.080265 S    
C26   H16   1.081197 S    
C10   C82   1.474205 S    
C4    C20   1.383202 A    
C58   C60   1.391702 A    
C50   C52   1.406396 A    
C62   C64   1.387947 A    
C59   H32   1.080834 S    
C67   C69   1.389892 A    
C65   C72   1.388455 A    
C3    H3    1.067864 S    
N2    Ni2   1.841501 S    
H17   C45   1.082581 S    
N18   O3    1.301414 A    
C4    H4    1.073917 S    
C36   C38   1.397889 A    
C81   H49   1.084957 S    
C71   C73   1.375067 A    
C43   H25   1.082365 S    
C35   C37   1.398137 A    
C26   C29   1.394306 A    
C54   H36   1.082662 S    
C56   C59   1.405406 A    
C58   H34   1.083990 S    
C53   H35   1.081614 S    
