data_str_m3_o14_o18_f0_pcu.sym.73
_audit_creation_date              2013-03-05T15:53:06-0500
_audit_creation_method            fapswitch 2.2
_symmetry_space_group_name_H-M    P1
_symmetry_Int_Tables_number       1
_space_group_crystal_system       triclinic
_cell_length_a                    9.979944
_cell_length_b                    10.718164
_cell_length_c                    15.368238
_cell_angle_alpha                 96.263509
_cell_angle_beta                  69.231678
_cell_angle_gamma                 91.799541
_cell_volume                      1527.85023262

loop_
_atom_site_label
_atom_site_type_symbol
_atom_site_description
_atom_site_fract_x
_atom_site_fract_y
_atom_site_fract_z
_atom_type_partial_charge
O1    O     O_R   0.385310 0.683220 0.500000 -0.586913
O2    O     O_R   0.614640 0.683250 0.500010 -0.646415
C1    C     C_R   0.507378 0.737055 0.488708 0.834376
O3    O     O_R   0.319840 0.499980 0.632240 -0.546902
O4    O     O_R   0.549160 0.500000 0.632250 -0.643594
C2    C     C_R   0.410970 0.503811 0.675917 0.867519
Zn1   Zn    Zn3+2 0.346880 0.499980 0.499990 1.043797
Zn2   Zn    Zn3+2 0.653120 0.500020 0.500010 0.944361
O5    O     O_R   0.385360 0.316750 0.499990 -0.594449
O6    O     O_R   0.614690 0.316780 0.500000 -0.617862
O7    O     O_R   0.450840 0.500000 0.367750 -0.540208
O8    O     O_R   0.680160 0.500020 0.367760 -0.613700
C3    C     C_R   0.495024 0.260128 0.504661 0.898446
C4    C     C_R   0.588706 0.505644 0.324402 0.936885
C5    C     C_R   0.358285 0.527311 0.777870 -0.061447
C6    C     C_R   0.635518 0.547064 0.229696 -0.230555
C7    C     C_R   0.165480 0.541008 0.927820 -0.132043
C8    C     C_R   0.212897 0.515415 0.830975 -0.175959
C9    C     C_R   0.455229 0.568964 0.821773 -0.263653
C10   C     C_R   0.409938 0.596064 0.918852 0.082435
C11   C     C_R   0.262801 0.579729 0.972276 0.170916
C12   C     C_R   0.508527 0.628408 0.965134 0.068699
C13   C     C_R   0.461946 0.620259 0.062000 0.109082
C14   C     C_R   0.314284 0.624403 0.113844 -0.156091
C15   C     C_R   0.215525 0.601241 0.069569 -0.170566
C16   C     C_R   0.651186 0.666541 0.919664 -0.207565
C17   C     C_R   0.744513 0.688285 0.969406 -0.107298
C18   C     C_R   0.703526 0.657539 0.061643 0.011038
C19   C     C_R   0.564669 0.610849 0.104575 -0.094046
C20   C     C_R   0.799324 0.667896 0.110646 0.496055
C21   C     C_R   0.764442 0.612583 0.194758 -0.347730
C22   C     C_R   0.537655 0.542323 0.182074 0.232129
H1    H     H_    0.103277 0.595023 0.111820 0.187469
H2    H     H_    0.838186 0.620831 0.232477 0.186182
H3    H     H_    0.851957 0.720315 0.933585 0.223698
H4    H     H_    0.053416 0.527570 0.967968 0.173938
H5    H     H_    0.136380 0.484990 0.797814 0.177761
H6    H     H_    0.567068 0.575483 0.779581 0.162584
H7    H     H_    0.275007 0.647215 0.188816 0.180074
H8    H     H_    0.690688 0.685259 0.847302 0.166580
H9    H     H_    0.714082 0.894421 0.501699 0.179532
C23   C     C_R   0.305525 0.862013 0.422159 -0.153364
H10   H     H_    0.332489 0.770639 0.382574 0.161457
C24   C     C_R   0.171845 0.912980 0.436571 -0.152876
H11   H     H_    0.096665 0.860223 0.410947 0.139630
C25   C     C_R   0.132815 0.029185 0.488235 -0.004296
H12   H     H_    0.025556 0.065603 0.505192 0.149408
C26   C     C_R   0.233254 0.100391 0.515860 -0.048532
H13   H     H_    0.196216 0.188622 0.557627 0.156610
C27   C     C_R   0.373865 0.053607 0.494489 0.080012
C28   C     C_R   0.400513 0.926925 0.461003 0.083667
C29   C     C_R   0.515712 0.867826 0.474163 -0.131013
C30   C     C_R   0.623233 0.938170 0.493740 -0.219557
H14   H     H_    0.700359 0.118808 0.517909 0.179236
C31   C     C_R   0.612366 0.066373 0.506503 -0.188232
C32   C     C_R   0.488895 0.125595 0.506842 -0.126855
H15   H     H_    0.913997 0.340475 0.407135 0.198807
C33   C     C_R   0.797711 0.682330 0.609543 -0.238538
H16   H     H_    0.687455 0.675270 0.619080 0.236817
C34   C     C_R   0.832140 0.784138 0.658514 -0.362349
H17   H     H_    0.749644 0.853094 0.697746 0.207775
C35   C     C_R   0.965305 0.793321 0.665734 0.248517
C36   C     C_R   0.071177 0.696124 0.620096 0.426068
C37   C     C_R   0.042643 0.595838 0.556288 -0.028103
C38   C     C_R   0.899132 0.592650 0.554253 0.101910
N1    N     N_R   0.856800 0.501200 0.500850 -0.129529
C39   C     C_R   0.951187 0.411323 0.448795 -0.156162
C40   C     C_R   0.093389 0.407838 0.448452 0.333539
N2    N     N_R   0.142390 0.501280 0.500880 -0.144825
O9    O     O_3   0.928593 0.728384 0.074407 -0.649803
C41   C     C_3   0.923243 0.844487 0.128416 -0.257518
H18   H     H_    0.919159 0.831230 0.200086 0.155774
H19   H     H_    0.830921 0.903113 0.131778 0.183817
H20   H     H_    0.022686 0.896643 0.094522 0.214755
N3    N     N_R   0.431540 0.445460 0.197601 0.242003
O10   O     O_R   0.300068 0.468403 0.252978 -0.394509
O11   O     O_R   0.465888 0.334590 0.152199 -0.327394
N4    N     N_R   0.981715 0.895539 0.729295 0.188933
O12   O     O_R   0.016754 0.005209 0.699596 -0.432073
O13   O     O_R   0.921360 0.889063 0.818814 -0.414110
O14   O     O_3   0.182886 0.679587 0.651255 -0.582057
C42   C     C_3   0.240494 0.788066 0.685584 -0.161996
H21   H     H_    0.182646 0.810557 0.761721 0.200882
H22   H     H_    0.246922 0.868536 0.644563 0.171777
H23   H     H_    0.351845 0.766884 0.679021 0.135991
N5    N     N_R   0.179491 0.301109 0.393087 0.219174
O15   O     O_R   0.317925 0.302351 0.361746 -0.278471
O16   O     O_R   0.119010 0.207750 0.359827 -0.430959

loop_
_geom_bond_atom_site_label_1
_geom_bond_atom_site_label_2
_geom_bond_distance
_ccdc_geom_bond_type
C5    C8    1.399611 A    
C31   C32   1.401848 A    
Zn2   N1    2.036962 S    
C40   N5    1.449751 S    
C9    C10   1.396415 A    
C22   N3    1.436006 S    
O14   C42   1.414223 S    
C24   H11   1.082614 S    
C6    C21   1.404454 A    
C5    C9    1.400245 A    
C16   C17   1.399508 A    
C36   O14   1.383157 S    
C13   C19   1.409191 A    
C18   C19   1.409333 A    
C8    H5    1.083185 S    
C19   C22   1.407616 A    
O4    C2    1.302008 A    
O7    C4    1.301566 A    
N4    O13   1.300329 A    
C33   C34   1.362278 A    
C14   H7    1.079453 S    
C34   C35   1.371913 A    
O5    C3    1.295456 A    
C2    C5    1.460420 S    
H14   C31   1.083708 S    
C40   N2    1.401424 A    
C13   C14   1.404342 A    
O9    C41   1.409865 S    
C7    H4    1.082661 S    
C23   C28   1.417180 A    
C3    C32   1.444865 S    
C26   C27   1.417720 A    
N1    C39   1.345250 A    
C23   C24   1.391821 A    
H15   C39   1.081219 S    
O3    Zn1   1.953129 S    
C20   O9    1.382585 S    
C24   C25   1.388795 A    
C27   C28   1.397258 A    
C30   C31   1.368883 A    
C25   C26   1.396615 A    
C39   C40   1.418964 A    
C14   C15   1.385434 A    
O3    C2    1.305365 A    
C41   H19   1.114429 S    
N5    O15   1.291977 A    
C17   H3    1.081755 S    
C33   H16   1.058687 S    
C27   C32   1.419938 A    
C28   C29   1.415088 A    
C34   H17   1.084688 S    
O1    C1    1.294191 A    
Zn1   O7    1.926503 S    
N3    O10   1.299618 A    
C35   C36   1.441456 A    
C9    H6    1.078355 S    
O4    Zn2   1.926503 S    
C33   C38   1.394055 A    
Zn2   O8    1.953126 S    
C7    C8    1.390653 A    
C21   H2    1.082939 S    
C37   N2    1.420251 A    
N3    O11   1.300569 A    
H9    C30   1.083859 S    
C26   H13   1.078975 S    
C10   C12   1.419596 A    
C38   N1    1.362769 A    
C42   H22   1.109924 S    
C4    C6    1.476304 S    
C23   H10   1.082639 S    
C29   C30   1.392510 A    
Zn1   O5    2.012884 S    
C11   C15   1.393829 A    
C25   H12   1.082740 S    
O1    Zn1   1.989233 S    
C35   N4    1.431774 S    
O2    Zn2   2.012885 S    
O8    C4    1.313079 A    
O6    C3    1.305126 A    
Zn1   N2    2.036464 S    
C41   H20   1.109435 S    
C1    C29   1.438495 S    
C6    C22   1.409897 A    
C42   H23   1.108155 S    
C37   C38   1.442873 A    
C18   C20   1.406846 A    
O2    C1    1.304276 A    
C41   H18   1.112189 S    
N4    O12   1.300145 A    
C16   H8    1.079430 S    
C20   C21   1.406685 A    
N5    O16   1.302364 A    
C7    C11   1.402055 A    
C36   C37   1.465225 A    
C10   C11   1.421700 A    
Zn2   O6    1.989232 S    
C42   H21   1.108441 S    
C12   C16   1.415129 A    
C17   C18   1.402694 A    
C12   C13   1.405305 A    
C15   H1    1.081613 S    
