data_str_m3_o40_o41_f0_fof.sym.9
_audit_creation_date              2012-12-10T16:38:14-0500
_audit_creation_method            fapswitch 2.2
_symmetry_space_group_name_H-M    P1
_symmetry_Int_Tables_number       1
_space_group_crystal_system       triclinic
_cell_length_a                    28.01863
_cell_length_b                    18.61432
_cell_length_c                    17.004991
_cell_angle_alpha                 90.085316
_cell_angle_beta                  60.767903
_cell_angle_gamma                 90.134037
_cell_volume                      7739.42458713

loop_
_atom_site_label
_atom_site_type_symbol
_atom_type_description
_atom_site_fract_x
_atom_site_fract_y
_atom_site_fract_z
_atom_type_partial_charge
C1    C     C_R   0.701058 0.266693 0.677036 0.903942
C2    C     C_R   0.082950 0.499780 0.547757 -0.074420
C3    C     C_R   0.192784 0.210852 0.905957 0.079393
C4    C     C_R   0.616386 0.328531 0.048931 -0.168293
C5    C     C_R   0.383613 0.671469 0.951069 -0.168294
C6    C     C_R   0.388823 0.312438 0.952588 -0.174843
C7    C     C_R   0.611177 0.687562 0.047412 -0.174846
C8    C     C_R   0.116386 0.828531 0.048931 -0.168293
C9    C     C_R   0.883613 0.171469 0.951069 -0.168294
C10   C     C_R   0.888823 0.812438 0.952588 -0.174847
C11   C     C_R   0.111177 0.187562 0.047412 -0.174843
C12   C     C_R   0.646934 0.316630 0.092060 -0.209084
C13   C     C_R   0.417051 0.000220 0.452235 -0.074418
C14   C     C_R   0.353066 0.683370 0.907940 -0.209084
C15   C     C_R   0.362114 0.290291 0.905814 -0.199512
C16   C     C_R   0.637886 0.709709 0.094186 -0.199515
C17   C     C_R   0.146933 0.816629 0.092060 -0.209084
C18   C     C_R   0.853066 0.183370 0.907940 -0.209084
C19   C     C_R   0.862114 0.790291 0.905814 -0.199516
C20   C     C_R   0.137886 0.209709 0.094186 -0.199513
C21   C     C_R   0.747416 0.198966 0.790222 -0.171435
C22   C     C_R   0.252583 0.801033 0.209778 -0.171438
C23   C     C_R   0.224178 0.275243 0.235677 -0.172755
C24   C     C_R   0.582939 0.999779 0.547809 -0.074412
C25   C     C_R   0.775822 0.724757 0.764323 -0.172752
C26   C     C_R   0.247416 0.698967 0.790222 -0.171437
C27   C     C_R   0.752583 0.301033 0.209778 -0.171436
C28   C     C_R   0.724178 0.775243 0.235677 -0.172752
C29   C     C_R   0.275822 0.224757 0.764323 -0.172754
C30   C     C_R   0.778832 0.186864 0.831929 -0.216402
C31   C     C_R   0.221168 0.813135 0.168071 -0.216404
C32   C     C_R   0.195462 0.258394 0.190581 -0.211142
C33   C     C_R   0.804538 0.741607 0.809420 -0.211143
C34   C     C_R   0.278832 0.686864 0.831928 -0.216404
C35   C     C_R   0.074975 0.370644 0.564154 0.589028
C36   C     C_R   0.721168 0.313136 0.168071 -0.216402
C37   C     C_R   0.695462 0.758394 0.190580 -0.211143
C38   C     C_R   0.304538 0.241606 0.809419 -0.211142
C39   C     C_R   0.070945 0.103675 0.937368 0.907296
C40   C     C_R   0.929055 0.896325 0.062632 0.907294
C41   C     C_R   0.927508 0.102046 0.063969 0.913696
C42   C     C_R   0.072492 0.897954 0.936031 0.913695
C43   C     C_R   0.570945 0.603675 0.937368 0.907295
C44   C     C_R   0.429055 0.396325 0.062632 0.907295
C45   C     C_R   0.427508 0.602046 0.063969 0.913696
C46   C     C_R   0.925035 0.629356 0.435786 0.589033
C47   C     C_R   0.572492 0.397954 0.936031 0.913695
C48   C     C_R   0.536400 0.130191 0.535969 -0.003841
C49   C     C_R   0.463585 0.869808 0.464093 -0.003851
C50   C     C_R   0.462860 0.130542 0.467367 -0.008362
C51   C     C_R   0.537126 0.869457 0.532690 -0.008360
C52   C     C_R   0.036418 0.630192 0.535894 -0.003849
C53   C     C_R   0.963601 0.369809 0.464026 -0.003843
C54   C     C_R   0.962876 0.630542 0.467298 -0.008358
C55   C     C_R   0.037140 0.369458 0.532628 -0.008363
C56   C     C_R   0.516772 0.195381 0.521322 -0.182203
C57   C     C_R   0.925452 0.371294 0.433153 0.590884
C58   C     C_R   0.483209 0.804618 0.478750 -0.182205
C59   C     C_R   0.481999 0.195584 0.483863 -0.185941
C60   C     C_R   0.517983 0.804416 0.516207 -0.185936
C61   C     C_R   0.016795 0.695382 0.521235 -0.182204
C62   C     C_R   0.983227 0.304619 0.478675 -0.182205
C63   C     C_R   0.982020 0.695584 0.483779 -0.185937
C64   C     C_R   0.018001 0.304416 0.516134 -0.185938
C65   C     C_R   0.480528 0.065324 0.485663 0.006828
C66   C     C_R   0.519459 0.934676 0.514392 0.006827
C67   C     C_R   0.519055 0.065173 0.516120 0.006143
C68   C     C_R   0.074564 0.628708 0.566773 0.590892
C69   C     C_R   0.480932 0.934826 0.483936 0.006145
C70   C     C_R   0.980543 0.565324 0.485597 0.006826
C71   C     C_R   0.019474 0.434676 0.514330 0.006828
C72   C     C_R   0.019071 0.565174 0.516053 0.006142
C73   C     C_R   0.980947 0.434827 0.483873 0.006145
C74   C     C_R   0.960731 0.500144 0.471116 -0.043835
C75   C     C_R   0.039284 0.499857 0.528815 -0.043837
C76   C     C_R   0.460718 0.000143 0.471176 -0.043837
C77   C     C_R   0.539270 0.999856 0.528876 -0.043836
C78   C     C_R   0.894565 0.434741 0.443958 -0.083141
C79   C     C_R   0.574966 0.870643 0.564205 0.589032
C80   C     C_R   0.105447 0.565261 0.555986 -0.083134
C81   C     C_R   0.105603 0.434256 0.554954 -0.084526
C82   C     C_R   0.894405 0.565745 0.444997 -0.084533
C83   C     C_R   0.394555 0.934740 0.444005 -0.083134
C84   C     C_R   0.605436 0.065259 0.556036 -0.083140
C85   C     C_R   0.605595 0.934255 0.554997 -0.084531
C86   C     C_R   0.394398 0.065745 0.445040 -0.084526
C87   C     C_R   0.839710 0.435777 0.458368 -0.183153
C88   C     C_R   0.160296 0.564223 0.541601 -0.183144
C89   C     C_R   0.160337 0.435580 0.541258 -0.184583
C90   C     C_R   0.425026 0.129357 0.435841 0.589030
C91   C     C_R   0.839667 0.564420 0.458716 -0.184583
C92   C     C_R   0.339704 0.935777 0.458394 -0.183145
C93   C     C_R   0.660291 0.064223 0.541630 -0.183152
C94   C     C_R   0.660333 0.935580 0.541281 -0.184583
C95   C     C_R   0.339663 0.064420 0.458739 -0.184584
C96   C     C_R   0.810893 0.500036 0.481638 0.273106
C97   C     C_R   0.189112 0.499964 0.518341 0.273094
C98   C     C_R   0.310889 0.000036 0.481657 0.273095
C99   C     C_R   0.689107 0.999964 0.518360 0.273103
C100  C     C_R   0.425438 0.871292 0.433214 0.590887
C101  C     C_R   0.298942 0.733307 0.322964 0.903924
C102  C     C_R   0.574548 0.128705 0.566841 0.590886
C103  C     C_R   0.717973 0.261366 0.957082 0.023486
C104  C     C_R   0.282026 0.738634 0.042918 0.023485
C105  C     C_R   0.278498 0.269728 0.046790 0.020768
C106  C     C_R   0.721502 0.730272 0.953210 0.020768
C107  C     C_R   0.217973 0.761366 0.957082 0.023485
C108  C     C_R   0.782026 0.238634 0.042918 0.023486
C109  C     C_R   0.778498 0.769728 0.046790 0.020768
C110  C     C_R   0.221502 0.230271 0.953210 0.020768
C111  C     C_R   0.766905 0.221280 0.913157 0.050887
C112  C     C_R   0.294086 0.277136 0.326700 0.906098
C113  C     C_R   0.233095 0.778719 0.086843 0.050887
C114  C     C_R   0.221964 0.252055 0.095794 0.049863
C115  C     C_R   0.778036 0.747946 0.904206 0.049863
C116  C     C_R   0.266905 0.721280 0.913157 0.050887
C117  C     C_R   0.733095 0.278720 0.086843 0.050887
C118  C     C_R   0.721964 0.752054 0.095794 0.049863
C119  C     C_R   0.278036 0.247945 0.904206 0.049863
C120  C     C_R   0.800229 0.212737 0.954437 0.047928
C121  C     C_R   0.199771 0.787263 0.045563 0.047928
C122  C     C_R   0.193514 0.231015 0.048856 0.044898
C123  C     C_R   0.705914 0.722864 0.673300 0.906112
C124  C     C_R   0.806486 0.768985 0.951144 0.044900
C125  C     C_R   0.300229 0.712737 0.954437 0.047928
C126  C     C_R   0.699771 0.287263 0.045563 0.047928
C127  C     C_R   0.693514 0.731015 0.048856 0.044899
C128  C     C_R   0.306486 0.268985 0.951144 0.044898
C129  C     C_R   0.638336 0.315915 0.955655 0.068043
C130  C     C_R   0.361663 0.684085 0.044345 0.068044
C131  C     C_R   0.361645 0.314203 0.047041 0.070970
C132  C     C_R   0.638355 0.685797 0.952959 0.070972
C133  C     C_R   0.138336 0.815915 0.955655 0.068044
C134  C     C_R   0.201058 0.766693 0.677036 0.903924
C135  C     C_R   0.861663 0.184085 0.044345 0.068043
C136  C     C_R   0.861645 0.814203 0.047041 0.070972
C137  C     C_R   0.138355 0.185797 0.952959 0.070970
C138  C     C_R   0.613221 0.340661 0.904604 -0.143228
C139  C     C_R   0.386779 0.659339 0.095396 -0.143226
C140  C     C_R   0.386687 0.341165 0.096955 -0.147940
C141  C     C_R   0.613312 0.658835 0.903045 -0.147941
C142  C     C_R   0.113221 0.840661 0.904604 -0.143225
C143  C     C_R   0.886779 0.159338 0.095396 -0.143229
C144  C     C_R   0.886687 0.841164 0.096955 -0.147942
C145  C     C_R   0.798942 0.233307 0.322964 0.903942
C146  C     C_R   0.113312 0.158835 0.903045 -0.147939
C147  C     C_R   0.632363 0.318190 0.817066 -0.266819
C148  C     C_R   0.367636 0.681810 0.182934 -0.266831
C149  C     C_R   0.364795 0.324834 0.186660 -0.256827
C150  C     C_R   0.635205 0.675166 0.813340 -0.256821
C151  C     C_R   0.132363 0.818190 0.817066 -0.266834
C152  C     C_R   0.867636 0.181810 0.182933 -0.266817
C153  C     C_R   0.864795 0.824834 0.186660 -0.256820
C154  C     C_R   0.135205 0.175166 0.813340 -0.256828
C155  C     C_R   0.677820 0.274930 0.775031 -0.116432
C156  C     C_R   0.794086 0.777136 0.326700 0.906111
C157  C     C_R   0.322179 0.725069 0.224969 -0.116433
C158  C     C_R   0.313101 0.296247 0.233101 -0.110593
C159  C     C_R   0.686899 0.703753 0.766899 -0.110594
C160  C     C_R   0.177821 0.774930 0.775031 -0.116433
C161  C     C_R   0.822179 0.225069 0.224969 -0.116431
C162  C     C_R   0.813101 0.796247 0.233101 -0.110595
C163  C     C_R   0.186899 0.203753 0.766899 -0.110593
C164  C     C_R   0.704586 0.249908 0.824080 0.069225
C165  C     C_R   0.295413 0.750092 0.175920 0.069226
C166  C     C_R   0.281134 0.285977 0.188902 0.064473
C167  C     C_R   0.205914 0.222864 0.673300 0.906099
C168  C     C_R   0.718866 0.714023 0.811098 0.064471
C169  C     C_R   0.204586 0.749908 0.824080 0.069227
C170  C     C_R   0.795413 0.250092 0.175920 0.069225
C171  C     C_R   0.781134 0.785977 0.188902 0.064471
C172  C     C_R   0.218866 0.214023 0.811098 0.064473
C173  C     C_R   0.692237 0.128944 0.530328 0.974768
C174  C     C_R   0.307761 0.871056 0.469680 0.974763
C175  C     C_R   0.307737 0.128942 0.469761 0.973802
C176  C     C_R   0.692261 0.871057 0.530245 0.973820
C177  C     C_R   0.192239 0.628943 0.530318 0.974759
C178  C     C_R   0.917062 0.500220 0.452184 -0.074411
C179  C     C_R   0.807763 0.371055 0.469671 0.974770
C180  C     C_R   0.807739 0.628943 0.469754 0.973824
C181  C     C_R   0.192263 0.371058 0.530238 0.973800
C182  C     C_R   0.687019 0.275803 0.912165 0.076594
C183  C     C_R   0.312981 0.724197 0.087835 0.076594
C184  C     C_R   0.307215 0.289148 0.094043 0.079393
C185  C     C_R   0.692784 0.710852 0.905957 0.079394
C186  C     C_R   0.187019 0.775803 0.912165 0.076594
C187  C     C_R   0.812981 0.224197 0.087835 0.076594
C188  C     C_R   0.807215 0.789148 0.094043 0.079394
Cl1   Cl    Cl    0.739768 0.499945 0.564596 -0.592647
Cl2   Cl    Cl    0.260239 0.500054 0.435400 -0.592649
Cl3   Cl    Cl    0.239762 0.999945 0.564600 -0.592649
Cl4   Cl    Cl    0.760232 0.000055 0.435404 -0.592647
F1    F     F_    0.078051 0.312040 0.609024 -0.660822
F2    F     F_    0.921952 0.687959 0.390923 -0.660833
F3    F     F_    0.921941 0.313036 0.387962 -0.668238
F4    F     F_    0.078076 0.686969 0.611953 -0.668230
F5    F     F_    0.578048 0.812040 0.609070 -0.660832
F6    F     F_    0.421949 0.187961 0.390972 -0.660822
F7    F     F_    0.421925 0.813032 0.388033 -0.668230
F8    F     F_    0.578059 0.186964 0.612030 -0.668241
H1    H     H_    0.031600 0.253424 0.528688 0.185916
H2    H     H_    0.386673 0.661740 0.220836 0.204063
H3    H     H_    0.386931 0.338803 0.222034 0.204046
H4    H     H_    0.613069 0.661197 0.777966 0.204047
H5    H     H_    0.113327 0.838260 0.779164 0.204062
H6    H     H_    0.886673 0.161741 0.220836 0.204065
H7    H     H_    0.886931 0.838803 0.222034 0.204048
H8    H     H_    0.113069 0.161197 0.777966 0.204045
H9    H     H_    0.574734 0.345529 0.091582 0.175210
H10   H     H_    0.425266 0.654470 0.908418 0.175211
H11   H     H_    0.431736 0.326007 0.913450 0.165127
H12   H     H_    0.968421 0.746576 0.471222 0.185922
H13   H     H_    0.568264 0.673992 0.086550 0.165125
H14   H     H_    0.074734 0.845529 0.091582 0.175211
H15   H     H_    0.925266 0.154470 0.908418 0.175210
H16   H     H_    0.931736 0.826008 0.913450 0.165124
H17   H     H_    0.068264 0.173992 0.086550 0.165128
H18   H     H_    0.627352 0.328406 0.163269 0.146125
H19   H     H_    0.372648 0.671594 0.836731 0.146123
H20   H     H_    0.386387 0.291900 0.833524 0.145626
H21   H     H_    0.613613 0.708099 0.166476 0.145626
H22   H     H_    0.127352 0.828406 0.163269 0.146122
H23   H     H_    0.969946 0.253763 0.464820 0.186462
H24   H     H_    0.872648 0.171593 0.836731 0.146125
H25   H     H_    0.886387 0.791901 0.833524 0.145626
H26   H     H_    0.113613 0.208100 0.166476 0.145627
H27   H     H_    0.756623 0.164991 0.733250 0.179819
H28   H     H_    0.243376 0.835008 0.266750 0.179822
H29   H     H_    0.200114 0.282878 0.307613 0.175305
H30   H     H_    0.799886 0.717123 0.692388 0.175307
H31   H     H_    0.256623 0.664991 0.733250 0.179821
H32   H     H_    0.743376 0.335008 0.266750 0.179820
H33   H     H_    0.700114 0.782877 0.307613 0.175307
H34   H     H_    0.030079 0.746239 0.535082 0.186460
H35   H     H_    0.299886 0.217122 0.692387 0.175305
H36   H     H_    0.811130 0.147617 0.801019 0.143912
H37   H     H_    0.188870 0.852382 0.198981 0.143911
H38   H     H_    0.151982 0.251912 0.232629 0.144235
H39   H     H_    0.848017 0.748089 0.767371 0.144235
H40   H     H_    0.311130 0.647617 0.801019 0.143912
H41   H     H_    0.688870 0.352383 0.198981 0.143912
H42   H     H_    0.651983 0.751911 0.232629 0.144235
H43   H     H_    0.348017 0.248088 0.767371 0.144234
H44   H     H_    0.531582 0.753424 0.528764 0.185920
H45   H     H_    0.468398 0.246576 0.471311 0.185915
H46   H     H_    0.469925 0.753761 0.464901 0.186460
H47   H     H_    0.530054 0.246237 0.535177 0.186464
H48   H     H_    0.613327 0.338259 0.779164 0.204064
O1    O     O_R   0.746490 0.236330 0.638080 -0.662487
O2    O     O_R   0.325830 0.813840 0.483730 -0.577984
O3    O     O_R   0.325830 0.186160 0.483730 -0.591946
O4    O     O_R   0.674170 0.813840 0.516270 -0.591963
O5    O     O_R   0.174170 0.686160 0.516270 -0.577979
O6    O     O_R   0.825830 0.313840 0.483730 -0.578027
O7    O     O_R   0.825830 0.686160 0.483730 -0.591965
O8    O     O_R   0.174170 0.313840 0.516270 -0.591945
O9    O     O_R   0.739960 0.127620 0.525000 -0.587301
O10   O     O_R   0.260040 0.872380 0.475000 -0.587305
O11   O     O_R   0.260040 0.127620 0.475000 -0.581261
O12   O     O_R   0.253510 0.763670 0.361920 -0.662487
O13   O     O_R   0.739960 0.872380 0.525000 -0.581265
O14   O     O_R   0.239960 0.627620 0.525000 -0.587306
O15   O     O_R   0.760040 0.372380 0.475000 -0.587301
O16   O     O_R   0.760040 0.627620 0.475000 -0.581265
O17   O     O_R   0.239960 0.372380 0.525000 -0.581260
O18   O     O_R   0.680700 0.294870 0.629350 -0.581708
O19   O     O_R   0.319300 0.705130 0.370650 -0.581712
O20   O     O_R   0.319300 0.294870 0.370650 -0.586111
O21   O     O_R   0.680700 0.705130 0.629350 -0.586106
O22   O     O_R   0.180700 0.794870 0.629350 -0.581712
O23   O     O_R   0.253510 0.236330 0.361920 -0.659227
O24   O     O_R   0.819300 0.205130 0.370650 -0.581707
O25   O     O_R   0.819300 0.794870 0.370650 -0.586105
O26   O     O_R   0.180700 0.205130 0.629350 -0.586112
O27   O     O_R   0.062020 0.072840 0.007170 -0.620683
O28   O     O_R   0.937980 0.927160 0.992830 -0.620683
O29   O     O_R   0.937980 0.072840 0.992830 -0.630558
O30   O     O_R   0.062020 0.927160 0.007170 -0.630558
O31   O     O_R   0.562020 0.572840 0.007170 -0.620683
O32   O     O_R   0.437980 0.427160 0.992830 -0.620683
O33   O     O_R   0.437980 0.572840 0.992830 -0.630558
O34   O     O_R   0.746490 0.763670 0.638080 -0.659231
O35   O     O_R   0.562020 0.427160 0.007170 -0.630558
O36   O     O_R   0.947860 0.073950 0.109290 -0.611416
O37   O     O_R   0.052140 0.926050 0.890710 -0.611416
O38   O     O_R   0.052140 0.073950 0.890710 -0.609393
O39   O     O_R   0.947860 0.926050 0.109290 -0.609393
O40   O     O_R   0.447860 0.573950 0.109290 -0.611416
O41   O     O_R   0.552140 0.426050 0.890710 -0.611416
O42   O     O_R   0.552140 0.573950 0.890710 -0.609393
O43   O     O_R   0.447860 0.426050 0.109290 -0.609393
O44   O     O_R   0.246490 0.736330 0.638080 -0.662485
O45   O     O_R   0.753510 0.263670 0.361920 -0.662489
O46   O     O_R   0.753510 0.736330 0.361920 -0.659231
O47   O     O_R   0.246490 0.263670 0.638080 -0.659227
O48   O     O_R   0.674170 0.186160 0.516270 -0.578022
Zn1   Zn    Zn3+2 0.792340 0.208750 0.507670 1.044749
Zn2   Zn    Zn3+2 0.494040 0.500000 0.919480 0.964779
Zn3   Zn    Zn3+2 0.005960 0.000000 0.080520 0.964780
Zn4   Zn    Zn3+2 0.994040 0.000000 0.919480 0.964780
Zn5   Zn    Zn3+2 0.207660 0.791250 0.492330 1.044766
Zn6   Zn    Zn3+2 0.207660 0.208750 0.492330 1.043625
Zn7   Zn    Zn3+2 0.792340 0.791250 0.507670 1.043613
Zn8   Zn    Zn3+2 0.292340 0.708750 0.507670 1.044765
Zn9   Zn    Zn3+2 0.707660 0.291250 0.492330 1.044750
Zn10  Zn    Zn3+2 0.707660 0.708750 0.492330 1.043614
Zn11  Zn    Zn3+2 0.292340 0.291250 0.507670 1.043626
Zn12  Zn    Zn3+2 0.505960 0.500000 0.080520 0.964781

loop_
_geom_bond_atom_site_label_1
_geom_bond_atom_site_label_2
_ccdc_geom_bond_type
O32   Zn2   S    
C108  C120  A    
O17   Zn11  S    
C63   H12   S    
C129  C182  A    
O5    Zn5   S    
C88   C177  S    
C5    H10   S    
O13   Zn7   S    
O14   Zn8   S    
C57   F3    S    
C50   C59   A    
C41   C143  S    
C8    H14   S    
C52   C61   A    
C180  O16   A    
C12   C126  A    
C54   C63   A    
C40   O28   A    
C58   C60   A    
C43   O42   A    
C45   C139  S    
C61   C63   A    
C103  C126  A    
C95   C175  S    
C62   C64   A    
C131  C140  A    
C91   C96   A    
C179  O6    A    
C179  O15   A    
C50   C90   A    
C162  C171  A    
C170  C187  A    
C70   C74   A    
C4    C12   A    
C34   H40   S    
C24   C85   A    
C149  H3    S    
O8    Zn6   S    
C88   C97   A    
C119  C128  A    
C39   O38   A    
C49   C69   A    
O26   Zn6   S    
C12   H18   S    
O27   Zn3   S    
C109  C118  A    
C21   H27   S    
C173  O48   A    
C11   C20   A    
C150  C159  A    
C165  C183  A    
C137  C146  A    
C166  C184  A    
O15   Zn9   S    
C86   C90   A    
C71   C73   A    
C106  C127  A    
C82   C91   A    
C51   C66   A    
C89   C181  S    
C142  C151  A    
C173  O9    A    
C52   C72   A    
C131  C184  A    
C105  C114  A    
C54   C70   A    
C82   C178  A    
C36   C117  A    
C7    C132  A    
C112  C158  S    
C38   C119  A    
C5    C130  A    
C83   C100  A    
C36   H41   S    
C47   O41   A    
C79   C85   A    
C66   C77   A    
C40   O39   A    
C57   C78   A    
O33   Zn2   S    
C176  O4    A    
O46   Zn10  S    
O36   Zn3   S    
C8    C17   A    
C56   C59   A    
C106  C115  A    
C80   C88   A    
O6    Zn1   S    
C145  C161  S    
O2    Zn8   S    
C93   C173  S    
C84   C93   A    
C105  C184  A    
O7    Zn7   S    
C86   C95   A    
C24   C77   A    
C104  C183  A    
C43   O31   A    
O3    Zn11  S    
O43   Zn12  S    
C2    C81   A    
C55   C71   A    
C2    C75   A    
C78   C87   A    
C134  C160  S    
C84   C102  A    
C67   C77   A    
C148  H2    S    
C9    H15   S    
C38   H43   S    
C133  C142  A    
C45   O40   A    
C123  C159  S    
C152  H6    S    
C130  C183  A    
C99   Cl4   S    
C1    O1    A    
C22   H28   S    
C3    C110  A    
C20   H26   S    
C69   C76   A    
C85   C94   A    
O40   Zn12  S    
C46   C82   A    
C29   C38   A    
C149  C158  A    
C20   C122  A    
C152  C161  A    
C135  C143  A    
C48   C67   A    
C136  C188  A    
C72   C75   A    
C112  O23   A    
C135  C187  A    
C180  O7    A    
C141  C150  A    
C46   F2    S    
O22   Zn5   S    
C25   C168  A    
C139  C148  A    
C1    O18   A    
C157  C165  A    
C6    H11   S    
C92   C174  S    
C4    H9    S    
C181  O8    A    
C175  O3    A    
C91   C180  S    
C151  H5    S    
C23   H29   S    
C47   O35   A    
C9    C135  A    
C147  H48   S    
C116  C125  A    
O37   Zn4   S    
C118  C127  A    
O20   Zn11  S    
C147  C155  A    
O35   Zn12  S    
C117  C126  A    
C39   O27   A    
C132  C141  A    
C112  O20   A    
C108  C117  A    
C98   Cl3   S    
C110  C119  A    
C174  O10   A    
C26   H31   S    
C134  O22   A    
C19   H25   S    
C10   H16   S    
C44   O32   A    
C28   C37   A    
C47   C138  S    
C148  C157  A    
C50   C65   A    
C51   C79   A    
C107  C116  A    
C41   O29   A    
C104  C113  A    
C9    C18   A    
C113  C121  A    
C51   C60   A    
C30   H36   S    
C140  C149  A    
C31   C113  A    
C25   C33   A    
O47   Zn11  S    
C64   H1    S    
C44   O43   A    
C73   C74   A    
O42   Zn2   S    
C150  H4    S    
C41   O36   A    
O19   Zn8   S    
C168  C185  A    
C107  C186  A    
C65   C76   A    
O39   Zn3   S    
C171  C188  A    
C145  O24   A    
C134  O44   A    
C169  C186  A    
C42   O30   A    
C3    C172  A    
O48   Zn9   S    
C103  C111  A    
C153  H7    S    
C104  C125  A    
C65   C67   A    
C160  C169  A    
C3    C137  A    
C18   H24   S    
C93   C99   A    
C81   C89   A    
C123  O21   A    
C8    C133  A    
C101  C157  S    
C44   C140  S    
C21   C164  A    
C16   H21   S    
C130  C139  A    
C167  O26   A    
O28   Zn4   S    
O12   Zn5   S    
C25   H30   S    
C56   H47   S    
C53   C73   A    
C60   H44   S    
C33   C115  A    
C58   H46   S    
C53   C57   A    
C132  C185  A    
C177  O14   A    
C102  F8    S    
O29   Zn4   S    
O30   Zn3   S    
C10   C19   A    
C48   C102  A    
C46   C54   A    
C68   F4    S    
C27   C170  A    
C5    C14   A    
O34   Zn7   S    
C181  O17   A    
C17   C121  A    
C143  C152  A    
C15   C128  A    
C14   H19   S    
C43   C141  S    
C107  C121  A    
O16   Zn10  S    
C158  C166  A    
C115  C124  A    
C78   C178  A    
C106  C185  A    
C6    C131  A    
C123  O34   A    
C4    C129  A    
C27   C36   A    
C21   C30   A    
C13   C83   A    
O11   Zn6   S    
O4    Zn10  S    
C156  O46   A    
C153  C162  A    
C23   C32   A    
C11   C137  A    
C136  C144  A    
C11   H17   S    
C110  C122  A    
O31   Zn12  S    
C32   H38   S    
C39   C146  S    
C42   O37   A    
C164  C182  A    
C35   F1    S    
O21   Zn10  S    
C176  O13   A    
O23   Zn6   S    
O18   Zn9   S    
C154  H8    S    
C94   C176  S    
C68   C80   A    
O1    Zn1   S    
C74   C178  A    
C79   F5    S    
C103  C182  A    
C108  C187  A    
C35   C81   A    
C95   C98   A    
C92   C98   A    
C83   C92   A    
C14   C125  A    
O41   Zn2   S    
C10   C136  A    
C66   C69   A    
C34   C116  A    
C101  O12   A    
C159  C168  A    
C144  C153  A    
C1    C155  S    
C17   H22   S    
C6    C15   A    
C22   C165  A    
C26   C34   A    
C29   H35   S    
C129  C138  A    
C26   C169  A    
C146  C154  A    
C13   C86   A    
C42   C142  S    
C52   C68   A    
C28   H33   S    
C31   H37   S    
C156  C162  S    
C61   H34   S    
O38   Zn4   S    
C16   C127  A    
C109  C188  A    
C167  O47   A    
C19   C124  A    
C45   O33   A    
C22   C31   A    
C37   C118  A    
C35   C55   A    
C154  C163  A    
C59   H45   S    
C174  O2    A    
C49   C58   A    
C89   C97   A    
C111  C120  A    
C96   Cl1   S    
C163  C167  S    
C33   H39   S    
C23   C166  A    
O45   Zn9   S    
C53   C62   A    
C27   H32   S    
C28   C171  A    
C13   C76   A    
C138  C147  A    
C87   C96   A    
C156  O25   A    
C62   H23   S    
C7    H13   S    
C133  C186  A    
C161  C170  A    
C97   Cl2   S    
C40   C144  S    
C18   C120  A    
O9    Zn1   S    
C48   C56   A    
C7    C16   A    
C37   H42   S    
C105  C128  A    
O10   Zn5   S    
C163  C172  A    
O25   Zn7   S    
C109  C124  A    
C90   F6    S    
C55   C64   A    
C155  C164  A    
C177  O5    A    
C30   C111  A    
C151  C160  A    
C24   C84   A    
C145  O45   A    
C49   C100  A    
C71   C75   A    
C94   C99   A    
O44   Zn8   S    
C29   C172  A    
C101  O19   A    
C2    C80   A    
C87   C179  S    
C114  C122  A    
C100  F7    S    
C70   C72   A    
C32   C114  A    
C15   H20   S    
O24   Zn1   S    
C175  O11   A    
