data_str_m3_o14_o24_f0_pcu.sym.83
_audit_creation_date              2012-12-10T17:49:43-0500
_audit_creation_method            fapswitch 2.2
_symmetry_space_group_name_H-M    P1
_symmetry_Int_Tables_number       1
_space_group_crystal_system       triclinic
_cell_length_a                    10.541232
_cell_length_b                    10.753733
_cell_length_c                    9.946766
_cell_angle_alpha                 90.421451
_cell_angle_beta                  88.61916
_cell_angle_gamma                 92.532808
_cell_volume                      1126.0904971

loop_
_atom_site_label
_atom_site_type_symbol
_atom_type_description
_atom_site_fract_x
_atom_site_fract_y
_atom_site_fract_z
_atom_type_partial_charge
C1    C     C_R   0.492397 0.259995 0.497994 0.870626
C2    C     C_R   0.391674 0.060322 0.575361 0.065184
C3    C     C_R   0.476823 0.126397 0.488858 -0.273820
C4    C     C_R   0.257533 0.494222 0.500943 0.837260
C5    C     C_R   0.543317 0.064926 0.385829 0.368826
C6    C     C_R   0.567414 0.940353 0.408290 0.402257
C7    C     C_R   0.492824 0.872890 0.504389 -0.302145
C8    C     C_R   0.324252 0.345868 0.144652 -0.107222
C9    C     C_R   0.226107 0.283107 0.078621 -0.197193
C10   C     C_R   0.219389 0.291393 0.940498 -0.182364
C11   C     C_R   0.315276 0.355337 0.867043 -0.147906
C12   C     C_3   0.965380 0.571620 0.406839 -0.217943
C13   C     C_R   0.410665 0.427009 0.930670 0.163413
C14   C     C_R   0.412625 0.424921 0.074629 0.153282
C15   C     C_R   0.584967 0.571176 0.069729 -0.114343
C16   C     C_R   0.498939 0.739824 0.501225 0.941056
C17   C     C_R   0.585499 0.570488 0.926751 -0.109850
C18   C     C_R   0.742316 0.496796 0.498890 0.855874
C19   C     C_3   0.033804 0.405604 0.591707 -0.203105
C20   C     C_3   0.951879 0.374461 0.467447 -0.190075
C21   C     C_3   0.877161 0.490845 0.497870 0.008400
C22   C     C_3   0.955836 0.521431 0.622953 -0.140929
C23   C     C_3   0.043145 0.455597 0.376909 -0.162926
C24   C     C_3   0.044842 0.599310 0.530649 0.121886
C25   C     C_3   0.773290 0.883353 0.420982 0.051418
C26   C     C_3   0.841122 0.012734 0.433211 -0.415321
C27   C     C_3   0.960318 0.009196 0.515768 -0.956101
C28   C     C_3   0.646478 0.118687 0.177753 0.106453
C29   C     C_3   0.718130 0.243180 0.202108 -0.326349
C30   C     C_3   0.840332 0.255866 0.116887 -1.017674
C31   C     C_3   0.122236 0.487137 0.501346 0.034555
C32   C     C_R   0.286226 0.117256 0.634898 -0.120923
C33   C     C_R   0.200754 0.049689 0.718045 -0.146664
C34   C     C_R   0.220595 0.926195 0.745665 -0.130475
C35   C     C_R   0.318797 0.866339 0.679771 -0.116804
C36   C     C_R   0.402491 0.931547 0.588228 0.019300
H1    H     H_    0.910388 0.281565 0.441459 0.139923
H2    H     H_    0.065070 0.337660 0.666097 0.124138
H3    H     H_    0.918379 0.551040 0.722911 0.138527
H4    H     H_    0.936461 0.638071 0.329960 0.130666
H5    H     H_    0.081623 0.428017 0.276873 0.151320
H6    H     H_    0.263831 0.210645 0.607785 0.094144
H7    H     H_    0.115531 0.090627 0.756335 0.120673
H8    H     H_    0.840911 0.819923 0.372873 0.165309
H9    H     H_    0.749586 0.844500 0.522575 0.126948
H10   H     H_    0.869781 0.047500 0.332035 0.226386
H11   H     H_    0.777206 0.079386 0.482589 0.200690
H12   H     H_    0.154433 0.874166 0.811131 0.137882
H13   H     H_    0.936885 0.971218 0.617290 0.259732
H14   H     H_    0.002624 0.104743 0.527729 0.262797
H15   H     H_    0.031669 0.952549 0.463056 0.270560
H16   H     H_    0.023527 0.773472 0.599545 0.181984
H17   H     H_    0.137306 0.761254 0.478441 0.185866
H18   H     H_    0.619627 0.115540 0.070415 0.164563
H19   H     H_    0.708666 0.040273 0.188829 0.180308
H20   H     H_    0.656738 0.319850 0.175768 0.263528
H21   H     H_    0.740628 0.252046 0.309888 0.208612
H22   H     H_    0.905825 0.181920 0.142040 0.255806
H23   H     H_    0.321389 0.767981 0.697540 0.188740
H24   H     H_    0.888498 0.347840 0.136689 0.278893
H25   H     H_    0.818593 0.249501 0.008262 0.271293
H26   H     H_    0.654342 0.629532 0.121876 0.164833
H27   H     H_    0.327343 0.330787 0.250125 0.203464
H28   H     H_    0.155209 0.227683 0.134899 0.148210
H29   H     H_    0.140110 0.246800 0.890648 0.137815
H30   H     H_    0.313121 0.347148 0.761367 0.193624
H31   H     H_    0.655315 0.628276 0.871936 0.141262
N1    N     N_R   0.498800 0.498800 0.142780 -0.140208
N2    N     N_R   0.498760 0.498720 0.857170 -0.122962
N3    N     N_3   0.098890 0.720706 0.566365 -0.481977
O1    O     O_R   0.500000 0.316780 0.614690 -0.628674
O2    O     O_3   0.532111 0.109738 0.255243 -0.612413
O3    O     O_R   0.499990 0.316750 0.385360 -0.610893
O4    O     O_R   0.313960 0.499980 0.614650 -0.646290
O5    O     O_R   0.313940 0.499960 0.385310 -0.648790
O6    O     O_R   0.500010 0.683250 0.614640 -0.643078
O7    O     O_R   0.500000 0.683220 0.385310 -0.562845
O8    O     O_R   0.686060 0.500040 0.614690 -0.624932
O9    O     O_R   0.686040 0.500020 0.385350 -0.628522
O10   O     O_3   0.665092 0.884607 0.338427 -0.655456
Zn1   Zn    Zn3+2 0.500010 0.500020 0.653130 0.924670
Zn2   Zn    Zn3+2 0.499990 0.499980 0.346870 0.944213

loop_
_geom_bond_atom_site_label_1
_geom_bond_atom_site_label_2
_ccdc_geom_bond_type
C17   N2    A    
C25   O10   S    
C7    C36   A    
C35   C36   A    
C19   C31   S    
C24   N3    S    
C12   C23   S    
C26   C27   S    
C1    O1    A    
C2    C32   A    
C28   C29   S    
C16   O7    A    
C5    O2    S    
C5    C6    A    
C22   H3    S    
C18   C21   S    
C35   H23   S    
C34   C35   A    
C4    O5    A    
C19   C20   S    
C18   O9    A    
C30   H24   S    
C9    C10   A    
C4    O4    A    
C11   H30   S    
C13   C14   A    
C9    H28   S    
C28   O2    S    
H17   N3    S    
C25   H8    S    
C28   H19   S    
C27   H15   S    
C32   H6    S    
C17   H31   S    
C33   H7    S    
C19   C22   S    
N2    Zn1   S    
C28   H18   S    
C8    C9    A    
C25   C26   S    
C12   C21   S    
C1    C3    S    
C23   C31   S    
C12   H4    S    
C29   C30   S    
C19   H2    S    
C6    O10   S    
C20   C23   S    
C18   O8    A    
C33   C34   A    
C26   H11   S    
C7    C16   S    
C29   H21   S    
C22   C24   S    
C34   H12   S    
O4    Zn1   S    
C25   H9    S    
O3    Zn2   S    
C10   H29   S    
C2    C36   A    
C15   C17   A    
C8    C14   A    
C16   O6    A    
C3    C5    A    
O6    Zn1   S    
O9    Zn2   S    
C27   H14   S    
O5    Zn2   S    
C6    C7    A    
C29   H20   S    
C12   C24   S    
C23   H5    S    
N1    Zn2   S    
C32   C33   A    
C2    C3    A    
C24   C31   S    
C1    O3    A    
C20   H1    S    
C11   C13   A    
O8    Zn1   S    
C13   N2    A    
O7    Zn2   S    
C15   N1    A    
C30   H22   S    
C15   H26   S    
C4    C31   S    
H16   N3    S    
C10   C11   A    
C26   H10   S    
C8    H27   S    
C20   C21   S    
C30   H25   S    
C14   N1    A    
C21   C22   S    
C27   H13   S    
O1    Zn1   S    
