data_str_m3_o14_o24_f0_pcu.sym.219
_audit_creation_date              2012-12-10T17:49:38-0500
_audit_creation_method            fapswitch 2.2
_symmetry_space_group_name_H-M    P1
_symmetry_Int_Tables_number       1
_space_group_crystal_system       triclinic
_cell_length_a                    10.490851
_cell_length_b                    10.62973
_cell_length_c                    9.949007
_cell_angle_alpha                 90.003816
_cell_angle_beta                  90.438451
_cell_angle_gamma                 91.420534
_cell_volume                      1109.08917316

loop_
_atom_site_label
_atom_site_type_symbol
_atom_type_description
_atom_site_fract_x
_atom_site_fract_y
_atom_site_fract_z
_atom_type_partial_charge
C1    C     C_R   0.498985 0.260706 0.500232 0.877483
C2    C     C_3   0.960125 0.604507 0.433742 -0.192392
C3    C     C_3   0.039600 0.499376 0.371495 -0.129922
C4    C     C_3   0.122586 0.501799 0.498454 0.046543
C5    C     C_R   0.736742 0.137172 0.535953 -0.159094
C6    C     C_R   0.851509 0.074903 0.551442 -0.146265
C7    C     C_R   0.852615 0.944089 0.549172 -0.144277
C8    C     C_R   0.738848 0.875194 0.532192 -0.169601
C9    C     C_R   0.621827 0.937113 0.516679 0.089337
C10   C     C_R   0.620518 0.068709 0.517720 0.054403
C11   C     C_R   0.502313 0.127895 0.501515 -0.106558
C12   C     C_R   0.257617 0.500457 0.499455 0.843004
C13   C     C_R   0.386230 0.059739 0.489542 0.195094
C14   C     C_R   0.389394 0.930391 0.487554 -0.201121
C15   C     C_R   0.505210 0.871117 0.500265 -0.138432
C16   C     C_R   0.331646 0.337606 0.138114 -0.160274
C17   C     C_R   0.248313 0.257419 0.067769 -0.193562
C18   C     C_R   0.248634 0.256758 0.928611 -0.194056
C19   C     C_R   0.332136 0.336413 0.859153 -0.146781
C20   C     C_R   0.417229 0.419616 0.927122 0.170869
C21   C     C_R   0.417111 0.419920 0.071402 0.166712
C22   C     C_R   0.579479 0.576642 0.072043 -0.108389
C23   C     C_R   0.500449 0.739011 0.499982 0.877980
C24   C     C_R   0.579412 0.576650 0.929155 -0.115337
C25   C     C_R   0.742518 0.501462 0.500457 0.829211
C26   C     C_3   0.040198 0.400030 0.565714 -0.190629
C27   C     C_3   0.954665 0.397461 0.438783 -0.187965
C28   C     C_3   0.877809 0.502464 0.501066 0.033499
C29   C     C_3   0.960927 0.505202 0.627959 -0.126114
C30   C     C_3   0.046024 0.607104 0.560537 -0.184166
H1    H     H_    0.914000 0.312753 0.387465 0.140267
H2    H     H_    0.941703 0.895917 0.561107 0.128078
H3    H     H_    0.743144 0.773680 0.531781 0.119529
H4    H     H_    0.301445 0.874973 0.477880 0.135266
H5    H     H_    0.644531 0.639399 0.125971 0.147179
H6    H     H_    0.326830 0.332682 0.244441 0.201267
H7    H     H_    0.183401 0.195209 0.121732 0.151426
H8    H     H_    0.184011 0.193978 0.873927 0.146260
H9    H     H_    0.327404 0.329819 0.752612 0.198367
H10   H     H_    0.644403 0.639421 0.876213 0.146851
H11   H     H_    0.076745 0.317690 0.621000 0.122630
H12   H     H_    0.924994 0.507573 0.732590 0.145297
H13   H     H_    0.088216 0.692318 0.609750 0.128789
H14   H     H_    0.923027 0.687542 0.379805 0.134319
H15   H     H_    0.075709 0.496755 0.266924 0.148133
H16   H     H_    0.939802 0.128108 0.565522 0.132933
N1    N     N_R   0.498800 0.498800 0.142780 -0.121478
N2    N     N_R   0.498760 0.498720 0.857170 -0.121358
O1    O     O_R   0.500000 0.316780 0.614690 -0.633696
O2    O     O_R   0.499990 0.316750 0.385360 -0.629093
O3    O     O_R   0.313960 0.499980 0.614650 -0.636851
O4    O     O_R   0.313940 0.499960 0.385310 -0.646211
O5    O     O_R   0.500010 0.683250 0.614640 -0.610955
O6    O     O_R   0.500000 0.683220 0.385310 -0.610951
O7    O     O_R   0.686060 0.500040 0.614690 -0.627728
O8    O     O_R   0.686040 0.500020 0.385350 -0.615264
Zn1   Zn    Zn3+2 0.500010 0.500020 0.653130 0.934186
Zn2   Zn    Zn3+2 0.499990 0.499980 0.346870 0.935463
C31   C     C_3   0.259055 0.123017 0.483544 -0.952256
H17   H     H_    0.178121 0.053706 0.478603 0.236695
H18   H     H_    0.247407 0.181000 0.575012 0.221111
H19   H     H_    0.253562 0.183825 0.393554 0.232728
H20   H     H_    0.739650 0.238696 0.539408 0.129868

loop_
_geom_bond_atom_site_label_1
_geom_bond_atom_site_label_2
_ccdc_geom_bond_type
C14   H4    S    
C4    C26   S    
C16   C21   A    
O3    Zn1   S    
C29   H12   S    
C4    C12   S    
N2    Zn1   S    
C1    O2    A    
C19   C20   A    
C1    C11   S    
C25   O8    A    
C2    C30   S    
C3    C27   S    
C17   C18   A    
C18   H8    S    
C31   H17   S    
C17   H7    S    
C13   C14   A    
C16   H6    S    
N1    Zn2   S    
C22   H5    S    
C11   C13   A    
C26   C27   S    
C29   C30   S    
O4    Zn2   S    
C26   C29   S    
C13   C31   S    
C19   H9    S    
C9    C10   A    
C15   C23   S    
C28   C29   S    
C12   O4    A    
O8    Zn2   S    
C23   O5    A    
C6    C7    A    
C2    C3    S    
C8    H3    S    
O7    Zn1   S    
C6    H16   S    
C5    C6    A    
C22   C24   A    
C30   H13   S    
C31   H18   S    
C16   C17   A    
C10   C11   A    
C27   H1    S    
C3    C4    S    
O2    Zn2   S    
C7    C8    A    
C12   O3    A    
O1    Zn1   S    
C20   C21   A    
C5    H20   S    
C23   O6    A    
C18   C19   A    
O6    Zn2   S    
C27   C28   S    
C21   N1    A    
O5    Zn1   S    
C14   C15   A    
C24   H10   S    
C31   H19   S    
C2    C28   S    
C7    H2    S    
C20   N2    A    
C5    C10   A    
C9    C15   A    
C1    O1    A    
C3    H15   S    
C22   N1    A    
C4    C30   S    
C25   O7    A    
C26   H11   S    
C2    H14   S    
C8    C9    A    
C25   C28   S    
C24   N2    A    
