data_str_m12_o9_o10_f0_bcu.sym.12
_audit_creation_date              2012-12-11T17:37:37-0500
_audit_creation_method            fapswitch 2.2
_symmetry_space_group_name_H-M    P1
_symmetry_Int_Tables_number       1
_space_group_crystal_system       triclinic
_cell_length_a                    12.878732
_cell_length_b                    12.99577
_cell_length_c                    15.364366
_cell_angle_alpha                 115.984232
_cell_angle_beta                  64.381702
_cell_angle_gamma                 97.196902
_cell_volume                      2077.79665946

loop_
_atom_site_label
_atom_site_type_symbol
_atom_type_description
_atom_site_fract_x
_atom_site_fract_y
_atom_site_fract_z
_atom_type_partial_charge
C1    C     C_R   0.068014 0.819488 0.987870 -0.097502
C2    C     C_R   0.305023 0.584409 0.787347 -0.104873
C3    C     C_R   0.258683 0.414238 0.046504 -0.154699
C4    C     C_R   0.694697 0.414360 0.209946 -0.146324
C5    C     C_R   0.991820 0.297327 0.695578 -0.141944
C6    C     C_R   0.361293 0.432414 0.973943 0.157749
C7    C     C_R   0.942527 0.196654 0.693064 0.069907
C8    C     C_R   0.305517 0.543031 0.688058 0.064267
C9    C     C_R   0.989884 0.158717 0.060761 0.048133
C10   C     C_R   0.337585 0.865396 0.184540 -0.117716
C11   C     C_R   0.232720 0.886366 0.274471 -0.122480
C12   C     C_R   0.694687 0.449612 0.308108 0.056134
C13   C     C_R   0.157647 0.982547 0.315855 0.115760
C14   C     C_R   0.190580 0.059183 0.268146 -0.194246
C15   C     C_R   0.295672 0.038046 0.178430 -0.088656
C16   C     C_R   0.754413 0.520644 0.893744 -0.157439
C17   C     C_R   0.368901 0.941010 0.136402 -0.082621
C18   C     C_R   0.033587 0.092717 0.503947 -0.252909
C19   C     C_R   0.937501 0.107406 0.598952 0.070044
C20   C     C_R   0.847151 0.034173 0.599959 0.019489
C21   C     C_R   0.855050 0.947582 0.503599 -0.236113
C22   C     C_R   0.953314 0.931061 0.409761 0.064242
C23   C     C_R   0.661513 0.458868 0.925540 0.156574
C24   C     C_R   0.044628 0.003413 0.409303 0.019231
C25   C     C_R   0.746853 0.963910 0.740659 -0.184621
C26   C     C_R   0.648925 0.961611 0.827965 -0.127889
C27   C     C_R   0.549609 0.032295 0.870663 -0.037036
C28   C     C_R   0.951144 0.720927 0.313717 -0.140904
C29   C     C_R   0.548281 0.105487 0.826263 -0.078713
C30   C     C_R   0.647249 0.110702 0.740943 -0.139374
C31   C     C_R   0.747183 0.039955 0.697850 0.115728
C32   C     C_R   0.867816 0.258386 0.385732 -0.116787
C33   C     C_R   0.768844 0.301761 0.392916 -0.134873
C34   C     C_R   0.965502 0.829392 0.316603 0.051838
C35   C     C_R   0.710428 0.406711 0.478170 0.120094
C36   C     C_R   0.752780 0.466713 0.556240 -0.184209
C37   C     C_R   0.851570 0.422863 0.548795 -0.112678
C38   C     C_R   0.909019 0.318854 0.463653 -0.094115
C39   C     C_R   0.508060 0.490637 0.583503 -0.229727
C40   C     C_R   0.675736 0.421780 0.990894 -0.111442
C41   C     C_R   0.404959 0.528901 0.593101 0.082773
C42   C     C_R   0.395014 0.530543 0.506237 0.020206
C43   C     C_R   0.491220 0.494374 0.410459 -0.232044
C44   C     C_R   0.594966 0.458153 0.401220 0.061528
C45   C     C_R   0.338224 0.515784 0.950956 -0.115915
C46   C     C_R   0.604212 0.453000 0.487048 0.019000
C47   C     C_R   0.242361 0.498261 0.438621 -0.185978
C48   C     C_R   0.140902 0.533915 0.443933 -0.109116
C49   C     C_R   0.083774 0.641098 0.522067 -0.099544
C50   C     C_R   0.128066 0.712772 0.594960 -0.124827
C51   C     C_R   0.229232 0.677235 0.590399 -0.120010
C52   C     C_R   0.025274 0.819717 0.214366 -0.116536
C53   C     C_R   0.287212 0.569455 0.512216 0.108504
C54   C     C_2   0.474758 0.390920 0.946307 -0.224446
C55   C     C_2   0.567830 0.433528 0.893458 -0.205835
C56   C     C_R   0.914910 0.193621 0.789027 -0.136247
C57   C     C_2   0.055284 0.910295 0.872681 -0.378700
C58   C     C_2   0.158954 0.951815 0.840467 0.445485
C59   C     C_R   0.795308 0.500710 0.307397 -0.117927
C60   C     C_R   0.963423 0.736053 0.895903 -0.158572
C61   C     C_R   0.024207 0.831065 0.924046 0.203199
C62   C     C_R   0.204974 0.491901 0.690498 -0.129101
C63   C     C_R   0.041712 0.259032 0.097403 -0.101272
C64   C     C_R   0.941478 0.175715 0.002451 -0.135026
Cl1   Cl    Cl    0.280232 0.921415 0.852481 -0.747574
H1    H     H_    0.131121 0.870529 0.013293 0.157500
H2    H     H_    0.394432 0.790373 0.152007 0.116410
H3    H     H_    0.209071 0.826992 0.310897 0.117852
H4    H     H_    0.632484 0.365062 0.181616 0.092178
H5    H     H_    0.134094 0.133958 0.299250 0.105834
H6    H     H_    0.320105 0.096673 0.141252 0.105950
H7    H     H_    0.105473 0.146152 0.504175 0.135742
H8    H     H_    0.786897 0.889375 0.502196 0.142675
H9    H     H_    0.822521 0.906721 0.706392 0.108185
H10   H     H_    0.649422 0.903789 0.861431 0.104849
H11   H     H_    0.473141 0.029140 0.937113 0.129313
H12   H     H_    0.869573 0.130856 0.816980 0.105127
H13   H     H_    0.469767 0.156666 0.857001 0.135577
H14   H     H_    0.644996 0.167068 0.706592 0.127412
H15   H     H_    0.985460 0.285293 0.458170 0.099991
H16   H     H_    0.776652 0.550123 0.832461 0.090261
H17   H     H_    0.912400 0.177677 0.319883 0.109753
H18   H     H_    0.737454 0.253236 0.332408 0.112080
H19   H     H_    0.709964 0.547977 0.622383 0.111089
H20   H     H_    0.883776 0.469696 0.608958 0.105807
H21   H     H_    0.511670 0.483372 0.649867 0.122891
H22   H     H_    0.486481 0.501309 0.344412 0.133723
H23   H     H_    0.175484 0.453545 0.627880 0.107232
H24   H     H_    0.285239 0.414587 0.377964 0.111309
H25   H     H_    0.106563 0.478418 0.387459 0.110656
H26   H     H_    0.005357 0.668728 0.525957 0.100718
H27   H     H_    0.084072 0.796079 0.654651 0.108546
H28   H     H_    0.913762 0.698327 0.380296 0.097788
H29   H     H_    0.262809 0.733684 0.647117 0.158038
H30   H     H_    0.477666 0.347638 0.991566 0.124772
H31   H     H_    0.566044 0.472656 0.844596 0.126671
H32   H     H_    0.991593 0.930476 0.852779 0.106515
H33   H     H_    0.629791 0.358677 0.018305 0.084191
H34   H     H_    0.075911 0.280898 0.155859 0.086828
H35   H     H_    0.052162 0.887674 0.188807 0.108363
H36   H     H_    0.825421 0.531800 0.369467 0.101661
H37   H     H_    0.933290 0.709042 0.833987 0.100405
H38   H     H_    0.397889 0.555964 0.902796 0.083985
H39   H     H_    0.883465 0.120523 0.971823 0.092979
H40   H     H_    0.366751 0.637505 0.813763 0.116249
H41   H     H_    0.247556 0.357982 0.084287 0.098307
H42   H     H_    0.013103 0.332248 0.638123 0.090796
H43   H     H_    0.449988 0.924532 0.066673 0.097161
N1    N     N_R   0.037320 0.720000 0.995830 -0.055242
N2    N     N_R   0.824900 0.517970 0.936430 -0.040505
N3    N     N_R   0.003190 0.648180 0.211390 -0.042678
N4    N     N_R   0.774330 0.457010 0.995830 -0.045846
N5    N     N_R   0.053760 0.709130 0.151980 -0.042975
N6    N     N_R   0.853840 0.498830 0.211390 -0.040596
N7    N     N_R   0.974250 0.667320 0.936430 -0.043491
N8    N     N_R   0.225670 0.542990 0.004170 -0.047169
N9    N     N_R   0.946240 0.290870 0.848020 -0.039599
N10   N     N_R   0.146160 0.501170 0.788610 -0.040895
N11   N     N_R   0.025750 0.332680 0.063570 -0.041293
N12   N     N_R   0.962680 0.280000 0.004170 -0.040344
N13   N     N_R   0.209230 0.553860 0.848010 -0.042910
N14   N     N_R   0.175100 0.482030 0.063570 -0.045347
N15   N     N_R   0.996810 0.351820 0.788610 -0.037906
N16   N     N_R   0.790770 0.446140 0.151990 -0.037450
Ni1   Ni    Ni4+2 0.130310 0.630310 0.000000 0.229742
Ni2   Ni    Ni4+2 0.869690 0.369690 0.000000 0.208663
Ni3   Ni    Ni4+2 0.985660 0.509480 0.863750 0.211609
Ni4   Ni    Ni4+2 0.014340 0.490520 0.136250 0.209543

loop_
_geom_bond_atom_site_label_1
_geom_bond_atom_site_label_2
_ccdc_geom_bond_type
C25   C31   A    
C6    C45   A    
C27   C29   A    
C9    C64   A    
C14   H5    S    
C41   C42   A    
C35   C36   A    
C3    C6    A    
C16   N2    A    
C39   C41   A    
C52   N5    A    
C26   C27   A    
C29   C30   A    
N8    N14   A    
C18   C24   A    
C37   H20   S    
C36   C37   A    
C49   H26   S    
C18   C19   A    
C42   C53   S    
C40   H33   S    
C30   C31   A    
N12   Ni2   S    
N5    Ni1   S    
C10   C17   A    
C23   C40   A    
C21   H8    S    
N7    Ni3   S    
C4    N16   A    
C15   C17   A    
C25   H9    S    
C56   N9    A    
C63   H34   S    
C45   H38   S    
C1    N1    A    
C12   C59   A    
C29   H13   S    
C19   C20   A    
C32   C38   A    
C4    C12   A    
N9    Ni2   S    
N4    Ni2   S    
C3    N14   A    
N2    Ni3   S    
C47   C53   A    
N6    N16   A    
N11   Ni4   S    
C28   C34   A    
C3    H41   S    
C48   H25   S    
C13   C14   A    
C47   H24   S    
C7    C56   A    
C6    C54   S    
C60   H37   S    
C4    H4    S    
C44   C46   A    
C50   C51   A    
C28   N3    A    
C18   H7    S    
C22   C34   S    
C59   H36   S    
C8    C41   S    
C40   N4    A    
C17   H43   S    
C5    C7    A    
C25   C26   A    
C10   H2    S    
C62   H23   S    
C52   H35   S    
C56   H12   S    
C13   C24   S    
C60   C61   A    
C51   C53   A    
N10   N13   A    
C1    H1    S    
C43   C44   A    
N13   Ni1   S    
C37   C38   A    
N6    Ni4   S    
C58   Cl1   S    
N15   Ni3   S    
C47   C48   A    
C57   H32   S    
C26   H10   S    
N3    N5    A    
C57   C61   S    
C33   H18   S    
C54   H30   S    
C39   C46   A    
C30   H14   S    
C50   H27   S    
C48   C49   A    
C49   C50   A    
C16   C23   A    
C7    C19   S    
N8    Ni1   S    
C22   C24   A    
C42   C43   A    
C27   H11   S    
C32   H17   S    
C11   H3    S    
N16   Ni2   S    
C5    H42   S    
C2    N13   A    
N1    Ni1   S    
C64   H39   S    
C54   C55   D    
C9    C63   A    
C2    C8    A    
C55   H31   S    
C1    C61   A    
N11   N12   A    
C23   C55   S    
C15   H6    S    
C5    N15   A    
C2    H40   S    
C34   C52   A    
C64   N12   A    
C43   H22   S    
C32   C33   A    
N9    N15   A    
C12   C44   S    
C11   C13   A    
C45   N8    A    
C57   C58   D    
C38   H15   S    
C36   H19   S    
C59   N6    A    
C16   H16   S    
C33   C35   A    
N14   Ni4   S    
N2    N4    A    
C62   N10   A    
C10   C11   A    
N1    N7    A    
C51   H29   S    
C20   C21   A    
C63   N11   A    
N10   Ni3   S    
N3    Ni4   S    
C14   C15   A    
C28   H28   S    
C60   N7    A    
C39   H21   S    
C21   C22   A    
C35   C46   S    
C8    C62   A    
C20   C31   S    
