data_str_m9_o16_o23_f0_sra.sym.59
_audit_creation_date              2012-12-11T15:12:46-0500
_audit_creation_method            fapswitch 2.2
_symmetry_space_group_name_H-M    P1
_symmetry_Int_Tables_number       1
_space_group_crystal_system       triclinic
_cell_length_a                    22.315788
_cell_length_b                    7.027157
_cell_length_c                    19.408111
_cell_angle_alpha                 90.000327
_cell_angle_beta                  99.224706
_cell_angle_gamma                 89.999269
_cell_volume                      3004.15188283

loop_
_atom_site_label
_atom_site_type_symbol
_atom_type_description
_atom_site_fract_x
_atom_site_fract_y
_atom_site_fract_z
_atom_type_partial_charge
O1    O     O_R   0.448420 0.506120 0.415750 -0.535284
O2    O     O_R   0.551580 0.006120 0.584250 -0.535271
O3    O     O_R   0.436490 0.174470 0.555610 -0.545981
O4    O     O_R   0.563510 0.674470 0.444390 -0.545981
C1    C     C_R   0.421465 0.344866 0.576147 0.768139
C2    C     C_R   0.578535 0.844864 0.423853 0.768088
O5    O     O_R   0.441310 0.176330 0.414520 -0.537218
O6    O     O_R   0.558690 0.676330 0.585480 -0.537227
O7    O     O_R   0.556430 0.007110 0.442150 -0.525013
O8    O     O_R   0.443570 0.507110 0.557850 -0.525007
C3    C     C_R   0.426286 0.344195 0.388714 0.884172
C4    C     C_R   0.573716 0.844195 0.611283 0.884164
O9    O     O_3   0.537770 0.339560 0.509230 -0.378661
O10   O     O_3   0.462230 0.839560 0.490770 -0.378680
V1    V     V_3+5 0.492990 0.064280 0.498290 1.482572
V2    V     V_3+5 0.507010 0.564280 0.501710 1.482584
C5    C     C_R   0.871831 0.982335 0.693286 0.416658
C6    C     C_R   0.128158 0.482106 0.306722 0.416650
H1    H     H_    0.788453 0.984826 0.579683 0.155280
H2    H     H_    0.211535 0.484534 0.420328 0.155247
C7    C     C_R   0.888090 0.942897 0.819405 -0.218142
C8    C     C_R   0.111912 0.442892 0.180593 -0.218136
C9    C     C_R   0.595165 0.793390 0.738582 0.332825
C10   C     C_R   0.404842 0.293456 0.261409 0.332813
C11   C     C_R   0.635548 0.741159 0.798626 -0.299570
C12   C     C_R   0.364461 0.241261 0.201358 -0.299558
C13   C     C_R   0.698034 0.757932 0.802176 0.371697
C14   C     C_R   0.301975 0.258013 0.197806 0.371691
C15   C     C_R   0.722616 0.842638 0.746214 -0.051768
C16   C     C_R   0.277389 0.342652 0.253778 -0.051784
C17   C     C_R   0.682621 0.867110 0.680854 -0.071230
C18   C     C_R   0.317380 0.367071 0.319143 -0.071216
C19   C     C_R   0.785925 0.891108 0.751588 0.046153
C20   C     C_R   0.214078 0.391089 0.248408 0.046139
C21   C     C_R   0.809451 0.939654 0.690318 -0.071566
C22   C     C_R   0.190544 0.439504 0.309685 -0.071581
C23   C     C_R   0.770686 0.945188 0.626252 -0.242461
C24   C     C_R   0.229305 0.444981 0.373754 -0.242462
C25   C     C_R   0.708576 0.905470 0.620406 0.330267
C26   C     C_R   0.291420 0.405323 0.379595 0.330275
C27   C     C_R   0.826179 0.901918 0.816114 -0.247426
C28   C     C_R   0.173828 0.401974 0.183880 -0.247414
C29   C     C_R   0.910985 0.986920 0.757530 0.273073
C30   C     C_R   0.089009 0.486783 0.242475 0.273055
C31   C     C_R   0.618183 0.843685 0.677751 -0.175513
C32   C     C_R   0.381820 0.343690 0.322244 -0.175515
H3    H     H_    0.810307 0.890922 0.865482 0.186023
H4    H     H_    0.189706 0.391065 0.134513 0.186000
H5    H     H_    0.618577 0.679731 0.842886 0.139895
H6    H     H_    0.381435 0.179876 0.157091 0.139893
C33   C     C_3   0.810366 0.781111 0.265391 0.024696
C34   C     C_3   0.189646 0.281108 0.734630 0.024695
C35   C     C_3   0.791100 0.127610 0.254114 0.331581
C36   C     C_3   0.208910 0.627608 0.745913 0.331599
C37   C     C_3   0.731675 0.123561 0.289566 0.243058
C38   C     C_3   0.268328 0.623569 0.710450 0.243059
H7    H     H_    0.830209 0.129878 0.298129 0.147543
H8    H     H_    0.169797 0.629882 0.701904 0.147553
H9    H     H_    0.696829 0.208313 0.255149 0.101627
H10   H     H_    0.303178 0.708325 0.744860 0.101635
C39   C     C_1   0.624963 0.858410 0.378942 -0.211337
C40   C     C_1   0.375037 0.358416 0.621059 -0.211316
C41   C     C_3   0.793566 0.940169 0.210214 -0.094782
C42   C     C_3   0.206450 0.440160 0.789808 -0.094788
C43   C     C_3   0.768015 0.786987 0.321831 0.357152
C44   C     C_3   0.231990 0.286994 0.678184 0.357170
C45   C     C_3   0.710138 0.908444 0.294331 -0.164169
C46   C     C_3   0.289867 0.408451 0.705678 -0.164182
C47   C     C_3   0.684446 0.836386 0.217863 0.486008
C48   C     C_3   0.315567 0.336383 0.782143 0.486039
C49   C     C_3   0.729246 0.897498 0.167270 0.223471
C50   C     C_3   0.270772 0.397482 0.832745 0.223457
C51   C     C_1   0.663394 0.879496 0.341305 0.016471
C52   C     C_1   0.336608 0.379504 0.658698 0.016435
C53   C     C_1   0.838499 0.941300 0.160601 0.007257
C54   C     C_1   0.161517 0.441289 0.839422 0.007269
C55   C     C_1   0.875685 0.942695 0.121129 -0.229041
C56   C     C_1   0.124326 0.442686 0.878887 -0.229026
H11   H     H_    0.733705 0.773223 0.132225 0.087518
H12   H     H_    0.266317 0.273199 0.867787 0.087517
H13   H     H_    0.801551 0.645298 0.237798 0.141425
H14   H     H_    0.198464 0.145290 0.762220 0.141420
H15   H     H_    0.754453 0.637732 0.328284 0.068567
H16   H     H_    0.245556 0.137743 0.671727 0.068545
O11   O     O_R   0.056480 0.288780 0.942210 -0.537058
O12   O     O_R   0.943520 0.788780 0.057790 -0.537067
O13   O     O_R   0.058700 0.616820 0.085490 -0.536736
O14   O     O_R   0.941300 0.116820 0.914510 -0.536695
C57   C     C_R   0.072453 0.448845 0.111814 0.710165
C58   C     C_R   0.927548 0.948846 0.888185 0.710193
O15   O     O_R   0.063520 0.618570 0.944410 -0.538392
O16   O     O_R   0.936480 0.118570 0.055590 -0.538383
O17   O     O_R   0.948420 0.787670 0.915740 -0.532981
O18   O     O_R   0.051580 0.287670 0.084260 -0.532972
C59   C     C_R   0.078961 0.450053 0.924566 0.737913
C60   C     C_R   0.921042 0.950056 0.075439 0.737882
O19   O     O_3   0.962260 0.453430 0.990800 -0.371052
O20   O     O_3   0.037740 0.953430 0.009200 -0.371063
V3    V     V_3+5 0.007000 0.728750 0.001710 1.393398
V4    V     V_3+5 0.993000 0.228750 0.998290 1.393461
O21   O     O_3   0.970686 0.039480 0.756887 -0.642578
H17   H     H_    0.994488 0.031187 0.804268 0.271423
O22   O     O_3   0.029303 0.539267 0.243127 -0.642592
H18   H     H_    0.005525 0.531340 0.195724 0.271457
O23   O     O_3   0.871650 0.793134 0.297404 -0.614380
H19   H     H_    0.897226 0.748051 0.263396 0.308146
O24   O     O_3   0.128359 0.293135 0.702625 -0.614381
H20   H     H_    0.102788 0.248038 0.736634 0.308157
O25   O     O_3   0.793217 0.291275 0.211970 -0.532287
C61   C     C_3   0.854397 0.343662 0.208540 0.088520
H21   H     H_    0.887742 0.225636 0.215718 0.121670
H22   H     H_    0.871882 0.439231 0.252221 0.124143
C62   C     C_3   0.856995 0.437275 0.138265 -0.645308
H23   H     H_    0.824347 0.556669 0.129090 0.201172
H24   H     H_    0.903421 0.491006 0.136521 0.174803
H25   H     H_    0.844564 0.332742 0.095548 0.222726
O26   O     O_3   0.206798 0.791265 0.788063 -0.532280
C63   C     C_3   0.145619 0.843667 0.791495 0.088483
H26   H     H_    0.112272 0.725647 0.784322 0.121650
H27   H     H_    0.128133 0.939232 0.747814 0.124107
C64   C     C_3   0.143025 0.937291 0.861770 -0.645346
H28   H     H_    0.175678 0.056670 0.870943 0.201188
H29   H     H_    0.096601 0.991044 0.863514 0.174806
H30   H     H_    0.155452 0.832756 0.904487 0.222725
O27   O     O_3   0.744193 0.206916 0.357213 -0.532888
C65   C     C_3   0.692777 0.303181 0.374991 0.118585
H31   H     H_    0.648891 0.233415 0.354977 0.115948
H32   H     H_    0.689434 0.447204 0.352895 0.094128
C66   C     C_3   0.698508 0.319107 0.453888 -0.658833
H33   H     H_    0.745503 0.357739 0.477539 0.219316
H34   H     H_    0.666598 0.428518 0.467816 0.182705
H35   H     H_    0.686944 0.181436 0.475624 0.227634
O28   O     O_3   0.255797 0.706934 0.642806 -0.532879
C67   C     C_3   0.307210 0.803150 0.625001 0.118548
H36   H     H_    0.351097 0.733405 0.645025 0.115925
H37   H     H_    0.310555 0.947216 0.647061 0.094138
C68   C     C_3   0.301468 0.818922 0.546101 -0.658678
H38   H     H_    0.254502 0.857913 0.522462 0.219184
H39   H     H_    0.333467 0.928004 0.532138 0.182758
H40   H     H_    0.312898 0.681081 0.524386 0.227669
O29   O     O_3   0.707127 0.063140 0.129225 -0.529693
C69   C     C_3   0.702866 0.035680 0.056551 0.164256
H41   H     H_    0.669327 0.921860 0.038369 0.125673
H42   H     H_    0.747822 0.997489 0.042608 0.108492
C70   C     C_3   0.681679 0.219821 0.019284 -0.676475
H43   H     H_    0.713697 0.336800 0.037885 0.231981
H44   H     H_    0.679766 0.202168 0.962101 0.164622
H45   H     H_    0.635769 0.257898 0.030056 0.222908
O30   O     O_3   0.292894 0.563115 0.870793 -0.529692
C71   C     C_3   0.297153 0.535647 0.943466 0.164279
H46   H     H_    0.330685 0.421802 0.961646 0.125666
H47   H     H_    0.252195 0.497487 0.957409 0.108511
C72   C     C_3   0.318353 0.719770 0.980737 -0.676490
H48   H     H_    0.286347 0.836778 0.962134 0.231990
H49   H     H_    0.320260 0.702118 0.037920 0.164626
H50   H     H_    0.364269 0.757802 0.969971 0.222897
O31   O     O_3   0.681923 0.636173 0.216639 -0.650854
H51   H     H_    0.654791 0.596890 0.249559 0.290459
O32   O     O_3   0.318095 0.136169 0.783362 -0.650854
H52   H     H_    0.345220 0.096891 0.750433 0.290456
O33   O     O_3   0.625027 0.903101 0.193820 -0.619375
H53   H     H_    0.624117 0.042929 0.198599 0.297348
O34   O     O_3   0.374987 0.403102 0.806181 -0.619365
H54   H     H_    0.375893 0.542929 0.801402 0.297348
O35   O     O_3   0.894102 0.034720 0.633386 -0.542192
C73   C     C_3   0.923738 0.876801 0.608843 0.118532
H55   H     H_    0.890720 0.760508 0.592185 0.097183
H56   H     H_    0.960440 0.820461 0.649408 0.156175
C74   C     C_3   0.952703 0.938149 0.546558 -0.675663
H57   H     H_    0.986733 0.051676 0.562517 0.229217
H58   H     H_    0.975846 0.814955 0.526456 0.175961
H59   H     H_    0.917505 0.993360 0.504309 0.239262
O36   O     O_3   0.105871 0.534306 0.366632 -0.542193
C75   C     C_3   0.076253 0.376274 0.391123 0.118640
H60   H     H_    0.109302 0.260095 0.407826 0.097163
H61   H     H_    0.039611 0.319808 0.350512 0.156091
C76   C     C_3   0.047185 0.437486 0.453349 -0.675587
H62   H     H_    0.013115 0.550871 0.437341 0.229259
H63   H     H_    0.024069 0.314186 0.473417 0.175894
H64   H     H_    0.082317 0.492835 0.495641 0.239195
O37   O     O_3   0.532668 0.774918 0.734837 -0.557493
C77   C     C_3   0.513068 0.839597 0.796559 0.093334
H65   H     H_    0.541743 0.957232 0.822783 0.118448
H66   H     H_    0.512640 0.718671 0.833419 0.141398
C78   C     C_3   0.449181 0.916137 0.778228 -0.692561
H67   H     H_    0.418898 0.805516 0.750886 0.197958
H68   H     H_    0.432143 0.958743 0.826690 0.219661
H69   H     H_    0.449174 0.041901 0.743519 0.220823
O38   O     O_3   0.467340 0.275009 0.265155 -0.557495
C79   C     C_3   0.486938 0.339725 0.203437 0.093336
H70   H     H_    0.458265 0.457385 0.177228 0.118456
H71   H     H_    0.487361 0.218825 0.166564 0.141383
C80   C     C_3   0.550827 0.416234 0.221771 -0.692556
H72   H     H_    0.581110 0.305574 0.249087 0.197951
H73   H     H_    0.567858 0.458900 0.173311 0.219669
H74   H     H_    0.550842 0.541954 0.256503 0.220821
O39   O     O_3   0.734009 0.680865 0.860024 -0.566359
C81   C     C_3   0.749921 0.492962 0.844322 0.084102
H75   H     H_    0.768726 0.485417 0.794483 0.130766
H76   H     H_    0.709555 0.398152 0.840668 0.126276
C82   C     C_3   0.798508 0.420378 0.902442 -0.677958
H77   H     H_    0.782064 0.428339 0.953380 0.209127
H78   H     H_    0.809740 0.270225 0.892153 0.175872
H79   H     H_    0.840221 0.508076 0.905102 0.230707
O40   O     O_3   0.266004 0.180978 0.139948 -0.566357
C83   C     C_3   0.250081 0.993077 0.155638 0.084115
H80   H     H_    0.231264 0.985530 0.205469 0.130757
H81   H     H_    0.290444 0.898248 0.159301 0.126275
C84   C     C_3   0.201501 0.920523 0.097504 -0.678003
H82   H     H_    0.217961 0.928456 0.046575 0.209123
H83   H     H_    0.190252 0.770383 0.107790 0.175874
H84   H     H_    0.159794 0.008263 0.094828 0.230709
O41   O     O_3   0.673422 0.897426 0.555263 -0.673495
H85   H     H_    0.700254 0.885081 0.519459 0.260814
O42   O     O_3   0.326573 0.397215 0.444738 -0.673487
H86   H     H_    0.299740 0.384732 0.480536 0.260766
O43   O     O_3   0.799807 0.865880 0.384824 -0.500817
C85   C     C_3   0.802222 0.739063 0.441690 0.145586
H87   H     H_    0.757030 0.676665 0.444920 0.087404
H88   H     H_    0.815344 0.822475 0.489924 0.132588
C86   C     C_3   0.850347 0.584817 0.440074 -0.690233
H89   H     H_    0.894755 0.651005 0.435832 0.242984
H90   H     H_    0.855248 0.500111 0.488945 0.179972
H91   H     H_    0.837367 0.487155 0.395242 0.239436
O44   O     O_3   0.200190 0.365892 0.615197 -0.500799
C87   C     C_3   0.197750 0.239054 0.558334 0.145571
H92   H     H_    0.242939 0.176661 0.555079 0.087326
H93   H     H_    0.184603 0.322452 0.510102 0.132645
C88   C     C_3   0.149632 0.084804 0.559984 -0.690181
H94   H     H_    0.105227 0.150988 0.564248 0.243012
H95   H     H_    0.144713 0.000080 0.511116 0.179951
H96   H     H_    0.162631 0.987155 0.604816 0.239443

loop_
_geom_bond_atom_site_label_1
_geom_bond_atom_site_label_2
_ccdc_geom_bond_type
C44   C46   S    
O4    V2    S    
C79   H70   S    
C9    C31   A    
C37   H9    S    
C13   C15   A    
O11   C59   A    
C82   H77   S    
O34   H54   S    
O1    C3    A    
O2    C4    A    
C48   O34   S    
C43   O43   S    
C67   C68   S    
C49   H11   S    
C70   H43   S    
C85   H87   S    
C34   C44   S    
O41   H85   S    
O5    C3    A    
C68   H39   S    
O35   C73   S    
C36   C42   S    
C58   O17   A    
C2    C39   S    
C21   C23   A    
C47   O33   S    
C66   H33   S    
C86   H91   S    
C12   H6    S    
C83   H81   S    
C43   H15   S    
C46   C52   S    
C15   C19   A    
O16   C60   A    
C84   H84   S    
C26   O42   S    
C84   H82   S    
C66   H34   S    
C48   O32   S    
C33   C43   S    
C57   O18   A    
C47   C49   S    
C75   H60   S    
C64   H30   S    
H1    C23   S    
C79   C80   S    
C70   H44   S    
C7    C29   A    
O29   C69   S    
O31   H51   S    
C8    C30   A    
C37   O27   S    
C34   O24   S    
C79   H71   S    
C20   C28   A    
C43   C45   S    
C71   C72   S    
C13   O39   S    
C47   O31   S    
O24   H20   S    
C81   H75   S    
C45   C51   S    
C72   H49   S    
O22   H18   S    
C33   H13   S    
C80   H72   S    
C33   O23   S    
C49   O29   S    
C62   H25   S    
C11   H5    S    
C80   H74   S    
O5    V1    S    
O27   C65   S    
C68   H38   S    
O6    V2    S    
C24   C26   A    
O36   C75   S    
C63   H26   S    
C73   H56   S    
C14   O40   S    
C82   H78   S    
C69   C70   S    
O38   C79   S    
C2    O7    A    
O19   V3    S    
C30   O22   S    
C38   O28   S    
O13   V3    S    
C7    C58   S    
C35   C37   S    
C27   H3    S    
C23   C25   A    
C68   H40   S    
C36   C38   S    
C69   H41   S    
C16   C20   A    
C74   H57   S    
O21   H17   S    
C33   C41   S    
O4    C2    A    
C34   C42   S    
O8    V2    S    
C25   O41   S    
C83   H80   S    
C78   H69   S    
C67   H37   S    
C65   C66   S    
C76   H63   S    
O43   C85   S    
C38   C46   S    
C44   H16   S    
C48   C50   S    
C61   H21   S    
C45   C47   S    
C77   C78   S    
O37   C77   S    
O42   H86   S    
C29   O21   S    
C86   H89   S    
O12   V3    S    
C71   H47   S    
C6    C30   A    
O28   C67   S    
H2    C24   S    
C85   H88   S    
O32   H52   S    
C61   C62   S    
O18   V4    S    
C56   C59   S    
O6    C4    A    
C76   H64   S    
C81   C82   S    
C80   H73   S    
O44   C87   S    
C42   C54   S    
O1    V2    S    
C28   H4    S    
C72   H50   S    
C34   H14   S    
O2    V1    S    
C53   C55   T    
C75   C76   S    
C64   H28   S    
C10   O38   S    
O12   C60   A    
C76   H62   S    
C7    C27   A    
C63   H27   S    
O40   C83   S    
O14   C58   A    
C87   H92   S    
C87   H93   S    
O9    V1    S    
C50   O30   S    
C73   H55   S    
C88   H95   S    
C82   H79   S    
O10   V2    S    
C36   O26   S    
C11   C13   A    
C75   H61   S    
O14   V4    S    
O33   H53   S    
C18   C26   A    
O3    V1    S    
C70   H45   S    
O16   V4    S    
C85   C86   S    
C62   H23   S    
C36   H8    S    
C35   O25   S    
O17   V3    S    
C84   H83   S    
C65   H32   S    
O19   V4    S    
C77   H66   S    
C71   H46   S    
C18   C32   A    
C10   C12   A    
C54   C56   T    
C4    C31   S    
O3    C1    A    
C35   H7    S    
C37   C45   S    
C9    O37   S    
C67   H36   S    
C88   H96   S    
C87   C88   S    
O23   H19   S    
C55   C60   S    
C12   C14   A    
C88   H94   S    
C86   H90   S    
C39   C51   T    
C66   H35   S    
O13   C57   A    
O7    V1    S    
C19   C27   A    
C1    O8    A    
C15   C17   A    
O11   V4    S    
C5    O35   S    
O30   C71   S    
C16   C18   A    
C35   C41   S    
C83   C84   S    
C78   H67   S    
C8    C28   A    
C41   C53   S    
C65   H31   S    
C44   O44   S    
C22   C24   A    
C19   C21   A    
C8    C57   S    
C14   C16   A    
C1    C40   S    
C20   C22   A    
C42   C50   S    
O39   C81   S    
O20   V4    S    
C61   H22   S    
C64   H29   S    
C50   H12   S    
C78   H68   S    
O15   C59   A    
C6    O36   S    
C38   H10   S    
C9    C11   A    
C73   C74   S    
C46   C48   S    
O20   V3    S    
C17   C31   A    
O9    V2    S    
O25   C61   S    
C5    C29   A    
C17   C25   A    
O10   V1    S    
C40   C52   T    
C3    C32   S    
C81   H76   S    
C74   H59   S    
C5    C21   A    
O15   V3    S    
C72   H48   S    
O26   C63   S    
C6    C22   A    
C41   C49   S    
C63   C64   S    
C69   H42   S    
C77   H65   S    
C10   C32   A    
C62   H24   S    
C74   H58   S    
