data_str_m9_o3_o18_f0_sra.sym.88
_audit_creation_date              2012-12-11T16:44:25-0500
_audit_creation_method            fapswitch 2.2
_symmetry_space_group_name_H-M    P1
_symmetry_Int_Tables_number       1
_space_group_crystal_system       triclinic
_cell_length_a                    27.079493
_cell_length_b                    7.197502
_cell_length_c                    22.866507
_cell_angle_alpha                 89.996867
_cell_angle_beta                  101.596304
_cell_angle_gamma                 89.999018
_cell_volume                      4365.81877417

loop_
_atom_site_label
_atom_site_type_symbol
_atom_type_description
_atom_site_fract_x
_atom_site_fract_y
_atom_site_fract_z
_atom_type_partial_charge
O1    O     O_R   0.707300 0.594030 0.176840 -0.528849
O2    O     O_R   0.292700 0.405970 0.823160 -0.528849
O3    O     O_R   0.792700 0.094030 0.323160 -0.528848
O4    O     O_R   0.207300 0.905970 0.676840 -0.528845
O5    O     O_R   0.697330 0.262360 0.295660 -0.507486
O6    O     O_R   0.302670 0.737640 0.704340 -0.507491
O7    O     O_R   0.802670 0.762360 0.204340 -0.507478
O8    O     O_R   0.197330 0.237640 0.795660 -0.507480
C1    C     C_R   0.685035 0.432033 0.312197 0.713189
C2    C     C_R   0.314966 0.567967 0.687804 0.713199
C3    C     C_R   0.814965 0.932036 0.187803 0.713175
C4    C     C_R   0.185035 0.067964 0.812197 0.713178
O9    O     O_R   0.701410 0.264250 0.175600 -0.536266
O10   O     O_R   0.298590 0.735750 0.824400 -0.536268
O11   O     O_R   0.798590 0.764250 0.324400 -0.536255
O12   O     O_R   0.201410 0.235750 0.675600 -0.536255
O13   O     O_R   0.796800 0.094950 0.202240 -0.545195
O14   O     O_R   0.203200 0.905050 0.797760 -0.545195
O15   O     O_R   0.703200 0.594950 0.297760 -0.545180
O16   O     O_R   0.296800 0.405050 0.702240 -0.545180
C5    C     C_R   0.689870 0.432538 0.153302 0.687559
C6    C     C_R   0.310130 0.567462 0.846698 0.687557
C7    C     C_R   0.810131 0.932527 0.346698 0.687588
C8    C     C_R   0.189869 0.067473 0.653302 0.687591
O17   O     O_3   0.781290 0.427390 0.258880 -0.374238
O18   O     O_3   0.218710 0.572610 0.741120 -0.374238
O19   O     O_3   0.718710 0.927390 0.241120 -0.374240
O20   O     O_3   0.281290 0.072610 0.758880 -0.374243
V1    V     V_3+5 0.744190 0.152150 0.248350 1.473895
V2    V     V_3+5 0.255810 0.847850 0.751650 1.473890
V3    V     V_3+5 0.755810 0.652150 0.251650 1.473935
V4    V     V_3+5 0.244190 0.347850 0.748350 1.473934
C9    C     C_R   0.156356 0.062032 0.593575 -0.162532
C10   C     C_R   0.843644 0.937969 0.406425 -0.162533
C11   C     C_R   0.343642 0.561982 0.906424 -0.162522
C12   C     C_R   0.656358 0.438018 0.093576 -0.162524
C13   C     C_R   0.141014 0.115523 0.486013 0.138162
C14   C     C_R   0.858986 0.884482 0.513987 0.138163
C15   C     C_R   0.358967 0.615147 0.014000 0.138169
C16   C     C_R   0.641033 0.384855 0.985999 0.138170
C17   C     C_R   0.174761 0.106902 0.541705 0.356088
C18   C     C_R   0.825238 0.893103 0.458295 0.356082
C19   C     C_R   0.325225 0.606640 0.958303 0.356077
C20   C     C_R   0.674775 0.393362 0.041697 0.356075
C21   C     C_R   0.105000 0.023200 0.589248 -0.269720
C22   C     C_R   0.895000 0.976799 0.410752 -0.269718
C23   C     C_R   0.395004 0.523264 0.910748 -0.269712
C24   C     C_R   0.604996 0.476735 0.089252 -0.269711
C25   C     C_R   0.069976 0.030359 0.533887 0.054208
C26   C     C_R   0.930024 0.969642 0.466113 0.054208
C27   C     C_R   0.430022 0.530319 0.966113 0.054211
C28   C     C_R   0.569978 0.469681 0.033886 0.054211
C29   C     C_R   0.088745 0.078229 0.482086 0.054490
C30   C     C_R   0.911255 0.921774 0.517914 0.054490
C31   C     C_R   0.411242 0.577963 0.017924 0.054488
C32   C     C_R   0.588758 0.422038 0.982076 0.054489
C33   C     C_R   0.016837 0.993712 0.528466 0.086275
C34   C     C_R   0.983162 0.006289 0.471534 0.086275
C35   C     C_R   0.483166 0.493775 0.971531 0.086277
C36   C     C_R   0.516834 0.506225 0.028469 0.086277
C37   C     C_R   0.003779 0.055166 0.421825 -0.189367
C38   C     C_R   0.996221 0.944836 0.578175 -0.189367
C39   C     C_R   0.496206 0.554877 0.078188 -0.189365
C40   C     C_R   0.503794 0.445123 0.921811 -0.189366
C41   C     C_R   0.054850 0.089240 0.426969 -0.179344
C42   C     C_R   0.945150 0.910763 0.573031 -0.179344
C43   C     C_R   0.445131 0.588856 0.073047 -0.179344
C44   C     C_R   0.554869 0.411145 0.926953 -0.179345
H1    H     H_    0.067223 0.125651 0.386349 0.136467
H2    H     H_    0.932776 0.874354 0.613651 0.136467
H3    H     H_    0.432748 0.625093 0.113675 0.136466
H4    H     H_    0.567252 0.374908 0.886325 0.136465
H5    H     H_    0.906341 0.008167 0.369354 0.117804
H6    H     H_    0.093659 0.991829 0.630645 0.117804
H7    H     H_    0.593648 0.507950 0.130655 0.117789
H8    H     H_    0.406351 0.492047 0.869345 0.117788
H9    H     H_    0.981455 0.069335 0.377506 0.120736
H10   H     H_    0.018545 0.930669 0.622494 0.120736
H11   H     H_    0.518525 0.568933 0.122514 0.120734
H12   H     H_    0.481475 0.431068 0.877486 0.120732
C45   C     C_R   0.880491 0.108411 0.147052 -0.238681
C46   C     C_R   0.119505 0.891593 0.852943 -0.238684
C47   C     C_R   0.619503 0.608396 0.352940 -0.238663
C48   C     C_R   0.380508 0.391621 0.647076 -0.238661
H13   H     H_    0.874317 0.227130 0.173787 0.159023
H14   H     H_    0.125678 0.772878 0.826206 0.159016
H15   H     H_    0.625673 0.727113 0.326199 0.159012
H16   H     H_    0.374344 0.272917 0.673825 0.158989
C49   C     C_R   0.916248 0.124211 0.110925 -0.142480
C50   C     C_R   0.083748 0.875794 0.889069 -0.142480
C51   C     C_R   0.583746 0.624192 0.389066 -0.142501
C52   C     C_R   0.416266 0.375826 0.610950 -0.142497
H17   H     H_    0.936998 0.252927 0.111238 0.120396
H18   H     H_    0.062996 0.747081 0.888754 0.120397
H19   H     H_    0.562992 0.752905 0.388748 0.120389
H20   H     H_    0.437027 0.247127 0.611276 0.120398
C53   C     C_R   0.925590 0.975144 0.075288 0.080539
C54   C     C_R   0.074408 0.024857 0.924709 0.080537
C55   C     C_R   0.574410 0.475128 0.424713 0.080553
C56   C     C_R   0.425593 0.524875 0.575293 0.080543
C57   C     C_R   0.899571 0.807706 0.077727 -0.237065
C58   C     C_R   0.100429 0.192290 0.922273 -0.237065
C59   C     C_R   0.600433 0.307694 0.422281 -0.237062
C60   C     C_R   0.399560 0.692293 0.577712 -0.237063
H21   H     H_    0.906988 0.691946 0.050448 0.107647
H22   H     H_    0.093014 0.308047 0.949555 0.107649
H23   H     H_    0.593020 0.191934 0.449566 0.107656
H24   H     H_    0.406967 0.808040 0.550418 0.107664
C61   C     C_R   0.863480 0.789233 0.114261 0.365611
C62   C     C_R   0.136522 0.210762 0.885741 0.365609
C63   C     C_R   0.636524 0.289223 0.385746 0.365594
C64   C     C_R   0.363468 0.710759 0.614245 0.365587
C65   C     C_R   0.853543 0.941931 0.149378 -0.074701
C66   C     C_R   0.146457 0.058068 0.850621 -0.074698
C67   C     C_R   0.646457 0.441921 0.350622 -0.074686
C68   C     C_R   0.353544 0.558078 0.649381 -0.074680
C69   C     C_R   0.004986 0.870639 0.046278 -0.198128
C70   C     C_R   0.995012 0.129361 0.953718 -0.198128
C71   C     C_R   0.495009 0.370667 0.453720 -0.198118
C72   C     C_R   0.504995 0.629338 0.546287 -0.198117
H25   H     H_    0.008918 0.770983 0.082474 0.127974
H26   H     H_    0.991080 0.229017 0.917522 0.127974
H27   H     H_    0.491071 0.271036 0.417520 0.127972
H28   H     H_    0.508932 0.728968 0.582487 0.127974
C73   C     C_R   0.041752 0.878062 0.010755 0.170774
C74   C     C_R   0.958245 0.121937 0.989241 0.170772
C75   C     C_R   0.458243 0.378102 0.489244 0.170768
C76   C     C_R   0.541762 0.621899 0.510764 0.170760
C77   C     C_R   0.036582 0.008516 0.963570 0.046206
C78   C     C_R   0.963416 0.991485 0.036427 0.046207
C79   C     C_R   0.463419 0.508532 0.536431 0.046190
C80   C     C_R   0.536585 0.491472 0.463575 0.046193
C81   C     C_3   0.086831 0.751058 0.025302 -0.767297
H29   H     H_    0.086065 0.648634 0.988945 0.196475
H30   H     H_    0.122110 0.833728 0.031232 0.222923
H31   H     H_    0.087357 0.672215 0.067183 0.203577
C82   C     C_3   0.913166 0.248940 0.974694 -0.767298
H32   H     H_    0.877888 0.166269 0.968766 0.222924
H33   H     H_    0.913933 0.351370 0.011049 0.196475
H34   H     H_    0.912639 0.327776 0.932812 0.203578
C83   C     C_3   0.413156 0.251147 0.474694 -0.767286
H35   H     H_    0.413891 0.148812 0.511073 0.196489
H36   H     H_    0.377885 0.333877 0.468720 0.222915
H37   H     H_    0.412649 0.172196 0.432839 0.203568
C84   C     C_3   0.586850 0.748842 0.525319 -0.767278
H38   H     H_    0.622120 0.666102 0.531293 0.222915
H39   H     H_    0.586118 0.851183 0.488942 0.196486
H40   H     H_    0.587358 0.827786 0.567174 0.203568
O21   O     O_3   0.774743 0.855337 0.456410 -0.644926
H41   H     H_    0.754181 0.884916 0.416693 0.299694
O22   O     O_3   0.225256 0.144670 0.543590 -0.644926
H42   H     H_    0.245819 0.115087 0.583307 0.299698
O23   O     O_3   0.725276 0.355704 0.043577 -0.644922
H43   H     H_    0.745828 0.385063 0.083317 0.299704
O24   O     O_3   0.274724 0.644299 0.956423 -0.644921
H44   H     H_    0.254172 0.614942 0.916683 0.299705
C85   C     C_3   0.161114 0.165222 0.430650 -0.723051
H45   H     H_    0.202356 0.189738 0.439576 0.255253
H46   H     H_    0.153281 0.050115 0.397757 0.191085
H47   H     H_    0.142795 0.294625 0.410551 0.192523
C86   C     C_3   0.838885 0.834786 0.569350 -0.723051
H48   H     H_    0.797643 0.810271 0.560424 0.255254
H49   H     H_    0.857204 0.705383 0.589449 0.192523
H50   H     H_    0.846718 0.949894 0.602243 0.191085
C87   C     C_3   0.338855 0.664607 0.069374 -0.723044
H51   H     H_    0.297610 0.689053 0.060449 0.255256
H52   H     H_    0.346700 0.549405 0.102235 0.191088
H53   H     H_    0.357155 0.793985 0.089510 0.192515
C88   C     C_3   0.661145 0.335397 0.930626 -0.723045
H54   H     H_    0.702391 0.310951 0.939551 0.255256
H55   H     H_    0.642845 0.206019 0.910490 0.192515
H56   H     H_    0.653300 0.450598 0.897765 0.191087
O25   O     O_3   0.837001 0.625433 0.114995 -0.644154
H57   H     H_    0.848549 0.533916 0.088211 0.284866
O26   O     O_3   0.163004 0.374554 0.885011 -0.644153
H58   H     H_    0.151456 0.466072 0.911795 0.284868
O27   O     O_3   0.663008 0.125428 0.385018 -0.644165
H59   H     H_    0.651462 0.033910 0.411808 0.284853
O28   O     O_3   0.336972 0.874532 0.614959 -0.644164
H60   H     H_    0.348513 0.966042 0.588163 0.284869

loop_
_geom_bond_atom_site_label_1
_geom_bond_atom_site_label_2
_ccdc_geom_bond_type
O17   V3    S    
C55   C59   A    
C25   C29   A    
C74   C82   S    
O1    C5    A    
C87   H51   S    
O19   V1    S    
C72   C79   A    
C9    C21   A    
C88   H54   S    
O12   C8    A    
O3    C7    A    
C10   C18   A    
C56   C60   A    
C11   C23   A    
C84   H40   S    
C84   H38   S    
C56   C79   S    
C25   C33   A    
C33   C38   A    
C5    C12   S    
C39   H11   S    
O25   H57   S    
O7    C3    A    
C6    C11   S    
C82   H33   S    
C35   C40   A    
C85   H45   S    
C55   C80   S    
C36   C39   A    
C20   O23   S    
C40   C44   A    
O2    V4    S    
O9    V1    S    
C23   H8    S    
C14   C18   A    
C83   H36   S    
C75   C83   S    
O4    C8    A    
C61   O25   S    
C76   C84   S    
C44   H4    S    
C74   C78   A    
C57   C61   A    
C60   H24   S    
O1    V3    S    
O13   V1    S    
C59   C63   A    
C70   H26   S    
C13   C85   S    
O3    V1    S    
C18   O21   S    
C69   H25   S    
O12   V4    S    
C70   C74   A    
C28   C36   A    
C86   H49   S    
C72   H28   S    
C1    O15   A    
C14   C86   S    
C15   C31   A    
C2    O16   A    
C16   C32   A    
O2    C6    A    
C81   H31   S    
O22   H42   S    
C58   H22   S    
C10   C22   A    
C23   C27   A    
C11   C19   A    
C62   C66   A    
C16   C20   A    
C43   H3    S    
C61   C65   A    
C13   C29   A    
C34   C37   A    
O11   C7    A    
O15   V3    S    
C35   C36   A    
C48   C68   A    
C49   H17   S    
C40   H12   S    
C24   H7    S    
O10   V2    S    
C19   O24   S    
C76   C80   A    
C16   C88   S    
C84   H39   S    
O16   V4    S    
C45   H13   S    
C50   H18   S    
O5    V1    S    
C52   H20   S    
C57   H21   S    
C82   H34   S    
C39   C43   A    
O7    V3    S    
C38   C42   A    
O8    V4    S    
C47   C67   A    
C46   C66   A    
C83   H37   S    
C37   H9    S    
C60   C64   A    
O18   V4    S    
C15   C19   A    
C32   C44   A    
O4    V2    S    
C49   C53   A    
C21   H6    S    
C26   C34   A    
C15   C87   S    
O5    C1    A    
C54   C58   A    
C31   C43   A    
O26   H58   S    
C14   C30   A    
C21   C25   A    
O8    C4    A    
C7    C10   S    
C71   C80   A    
O9    C5    A    
C62   O26   S    
C69   C78   A    
C64   O28   S    
C30   C42   A    
O6    V2    S    
C87   H53   S    
C81   H29   S    
C88   H56   S    
C12   C20   A    
C27   C35   A    
C4    O14   A    
C64   C68   A    
C86   H50   S    
C29   C41   A    
C52   C56   A    
C81   H30   S    
C88   H55   S    
C73   C81   S    
C3    O13   A    
C1    C67   S    
C38   H10   S    
C48   H16   S    
C47   H15   S    
C53   C78   S    
C85   H46   S    
C72   C76   A    
O11   V3    S    
C17   O22   S    
C71   H27   S    
C85   H47   S    
C47   C51   A    
C82   H32   S    
C22   C26   A    
C8    C9    S    
C46   C50   A    
C59   H23   S    
C9    C17   A    
O10   C6    A    
O20   V2    S    
C45   C49   A    
C26   C30   A    
C70   C77   A    
C86   H48   S    
O21   H41   S    
C46   H14   S    
C33   C34   A    
C42   H2    S    
C41   H1    S    
C54   C77   S    
C12   C24   A    
C27   C31   A    
C37   C41   A    
C13   C17   A    
C3    C65   S    
C2    C68   S    
C75   C79   A    
C58   C62   A    
O6    C2    A    
O14   V2    S    
C51   H19   S    
O28   H60   S    
C73   C77   A    
C24   C28   A    
C87   H52   S    
O27   H59   S    
C4    C66   S    
C45   C65   A    
O24   H44   S    
C63   O27   S    
C63   C67   A    
C48   C52   A    
C51   C55   A    
O23   H43   S    
C83   H35   S    
C69   C73   A    
C50   C54   A    
C22   H5    S    
C53   C57   A    
C28   C32   A    
C71   C75   A    
