data_str_m2_o5_o29_f0_pcu.sym.99
_audit_creation_date              2013-03-05T16:36:16-0500
_audit_creation_method            fapswitch 2.2
_symmetry_space_group_name_H-M    P1
_symmetry_Int_Tables_number       1
_space_group_crystal_system       triclinic
_cell_length_a                    27.796902
_cell_length_b                    9.116726
_cell_length_c                    7.778447
_cell_angle_alpha                 90.001581
_cell_angle_beta                  90.0
_cell_angle_gamma                 90.000013
_cell_volume                      1971.1886739

loop_
_atom_site_label
_atom_site_type_symbol
_atom_site_description
_atom_site_fract_x
_atom_site_fract_y
_atom_site_fract_z
_atom_type_partial_charge
O1    O     O_R   0.500000 0.288390 0.642760 -0.574789
O2    O     O_R   0.500000 0.711610 0.357240 -0.574789
O3    O     O_R   0.500000 0.711610 0.642760 -0.574768
O4    O     O_R   0.500000 0.288390 0.357240 -0.574768
C1    C     C_R   0.500000 0.219956 0.499999 0.852003
C2    C     C_R   0.500000 0.780044 0.500001 0.852003
O5    O     O_R   0.430260 0.500000 0.642770 -0.585396
O6    O     O_R   0.569740 0.500000 0.357230 -0.585391
O7    O     O_R   0.569740 0.500000 0.642770 -0.585391
O8    O     O_R   0.430260 0.500000 0.357230 -0.585396
C3    C     C_R   0.407142 0.500000 0.500000 0.797840
C4    C     C_R   0.592857 0.500000 0.500000 0.797832
Cu1   Cu    Cu3+1 0.500000 0.500000 0.669080 1.011606
Cu2   Cu    Cu3+1 0.500000 0.500000 0.330920 1.011607
C5    C     C_R   0.177677 0.371712 0.469252 0.597438
C6    C     C_R   0.822328 0.628290 0.469287 0.597398
C7    C     C_R   0.177677 0.628286 0.530749 0.597437
C8    C     C_R   0.822328 0.371707 0.530714 0.597398
O9    O     O_2   0.202907 0.247630 0.440746 -0.414342
O10   O     O_2   0.797101 0.752387 0.440848 -0.414391
O11   O     O_2   0.202907 0.752368 0.559255 -0.414342
O12   O     O_2   0.797101 0.247610 0.559152 -0.414392
N1    N     N_R   0.201654 0.499999 0.500000 -0.496890
N2    N     N_R   0.798349 0.499999 0.500000 -0.496841
C9    C     C_R   0.278429 0.510579 0.655341 -0.087349
C10   C     C_R   0.721569 0.488734 0.655271 -0.087288
C11   C     C_R   0.278429 0.489420 0.344659 -0.087349
C12   C     C_R   0.721569 0.511265 0.344730 -0.087288
C13   C     C_R   0.328600 0.510288 0.655564 -0.198180
C14   C     C_R   0.671398 0.489030 0.655495 -0.198261
C15   C     C_R   0.328600 0.489711 0.344436 -0.198180
C16   C     C_R   0.671398 0.510969 0.344505 -0.198261
C17   C     C_R   0.253228 0.499999 0.500000 0.325255
C18   C     C_R   0.746772 0.499999 0.500000 0.325064
C19   C     C_R   0.101640 0.499999 0.500000 -0.213545
C20   C     C_R   0.898365 0.499999 0.500000 -0.213552
C21   C     C_R   0.127076 0.368566 0.469838 -0.135906
C22   C     C_R   0.872929 0.631432 0.469856 -0.135883
C23   C     C_R   0.127076 0.631432 0.530163 -0.135906
C24   C     C_R   0.872929 0.368566 0.530145 -0.135884
C25   C     C_R   0.101279 0.238362 0.440470 0.717179
C26   C     C_R   0.898726 0.761635 0.440491 0.717186
C27   C     C_R   0.101279 0.761636 0.559531 0.717179
C28   C     C_R   0.898726 0.238363 0.559510 0.717187
C29   C     C_R   0.354153 0.500000 0.500000 -0.040289
C30   C     C_R   0.645845 0.500000 0.500000 -0.040281
H1    H     H_    0.347325 0.481535 0.222697 0.160881
H2    H     H_    0.652671 0.519700 0.222826 0.160908
H3    H     H_    0.347325 0.518464 0.777303 0.160881
H4    H     H_    0.652671 0.480299 0.777174 0.160908
H5    H     H_    0.259074 0.481417 0.224178 0.142938
H6    H     H_    0.740922 0.519803 0.224299 0.143074
H7    H     H_    0.259074 0.518581 0.775823 0.142938
H8    H     H_    0.740921 0.480195 0.775702 0.143074
C31   C     C_R   0.974686 0.365587 0.510254 0.008646
C32   C     C_R   0.025320 0.634411 0.510264 0.008647
C33   C     C_R   0.974685 0.634411 0.489747 0.008646
C34   C     C_R   0.025320 0.365587 0.489737 0.008647
C35   C     C_R   0.949351 0.499999 0.500000 0.071351
C36   C     C_R   0.050654 0.499999 0.500000 0.071357
C37   C     C_R   0.948629 0.236241 0.544647 -0.284788
C38   C     C_R   0.051377 0.763757 0.544665 -0.284783
C39   C     C_R   0.948629 0.763757 0.455354 -0.284788
C40   C     C_R   0.051377 0.236240 0.455336 -0.284783
H9    H     H_    0.966471 0.133023 0.568871 0.164110
H10   H     H_    0.033534 0.866976 0.568891 0.164112
H11   H     H_    0.966471 0.866974 0.431130 0.164110
H12   H     H_    0.033534 0.133022 0.431110 0.164112
C41   C     C_1   0.500000 0.065318 0.499998 -0.162482
C42   C     C_1   0.500000 0.934682 0.500002 -0.162482
N3    N     N_1   0.500000 0.500000 0.076820 -0.049125
N4    N     N_1   0.500000 0.500000 0.923180 -0.049125
F1    F     F_    0.123947 0.112487 0.394985 -0.558331
F2    F     F_    0.876058 0.887507 0.395003 -0.558323
F3    F     F_    0.123947 0.887511 0.605016 -0.558331
F4    F     F_    0.876058 0.112491 0.604997 -0.558323

loop_
_geom_bond_atom_site_label_1
_geom_bond_atom_site_label_2
_geom_bond_distance
_ccdc_geom_bond_type
C31   C35   1.415588 A    
Cu2   N3    1.976503 S    
C20   C35   1.417247 A    
C13   H3    1.083126 S    
C11   C17   1.400007 A    
O5    C3    1.283046 A    
C7    N1    1.367206 A    
O1    C1    1.273706 A    
C40   H12   1.080271 S    
C19   C21   1.410928 A    
C9    H7    1.083062 S    
C22   C26   1.405501 A    
C33   C35   1.415587 A    
C34   C36   1.415589 A    
O7    Cu1   1.949326 S    
C32   C33   1.416501 A    
C7    C23   1.406856 A    
C28   F4    1.356129 S    
C8    C24   1.406858 A    
C5    C21   1.406856 A    
C20   C24   1.410916 A    
C1    C41   1.409799 S    
C5    O9    1.349308 S    
C10   C18   1.400019 A    
N1    C17   1.433597 S    
C8    N2    1.367236 A    
O3    Cu1   1.940029 S    
C6    O10   1.349310 S    
O3    C2    1.273717 A    
C5    N1    1.367205 A    
C14   H4    1.083106 S    
C12   C18   1.400019 A    
C6    N2    1.367235 A    
C15   H1    1.083126 S    
Cu1   Cu2   2.630360 S    
C21   C25   1.405498 A    
C16   H2    1.083105 S    
O2    C2    1.273706 A    
C10   H8    1.083042 S    
C11   H5    1.083062 S    
C33   C39   1.409516 A    
C9    C13   1.394608 A    
C39   H11   1.080271 S    
C26   F2    1.356129 S    
C38   H10   1.080271 S    
C11   C15   1.394608 A    
C12   C16   1.394608 A    
C4    C30   1.472913 S    
O8    Cu2   1.949328 S    
C23   C27   1.405499 A    
C34   C40   1.409518 A    
C7    O11   1.349308 S    
C32   C36   1.415589 A    
C13   C29   1.406244 A    
C19   C36   1.417242 A    
C19   C23   1.410928 A    
O5    Cu1   1.949328 S    
O6    C4    1.283039 A    
C10   C14   1.394605 A    
C32   C38   1.409518 A    
C3    C29   1.472938 S    
O1    Cu1   1.940018 S    
C27   F3    1.356132 S    
C2    C42   1.409799 S    
O6    Cu2   1.949326 S    
C8    O12   1.349311 S    
C16   C30   1.406201 A    
C14   C30   1.406201 A    
O4    C1    1.273717 A    
Cu1   N4    1.976503 S    
C28   C37   1.392076 A    
C20   C22   1.410917 A    
N3    N4    1.195081 T    
C12   H6    1.083041 S    
C31   C37   1.409516 A    
O4    Cu2   1.940030 S    
C41   C42   1.190964 T    
O2    Cu2   1.940018 S    
O7    C4    1.283039 A    
N2    C18   1.433670 S    
O8    C3    1.283046 A    
C25   F1    1.356131 S    
C37   H9    1.080270 S    
C24   C28   1.405501 A    
C15   C29   1.406244 A    
C31   C34   1.416501 A    
C9    C17   1.400008 A    
C25   C40   1.392075 A    
C26   C39   1.392073 A    
C27   C38   1.392075 A    
C6    C22   1.406858 A    
