data_str_m9_o2_o23_f0_sra.sym.11
_audit_creation_date              2012-12-11T16:31:24-0500
_audit_creation_method            fapswitch 2.2
_symmetry_space_group_name_H-M    P1
_symmetry_Int_Tables_number       1
_space_group_crystal_system       triclinic
_cell_length_a                    7.001146
_cell_length_b                    18.380945
_cell_length_c                    20.087311
_cell_angle_alpha                 68.221983
_cell_angle_beta                  91.22129
_cell_angle_gamma                 91.189815
_cell_volume                      2399.71875394

loop_
_atom_site_label
_atom_site_type_symbol
_atom_type_description
_atom_site_fract_x
_atom_site_fract_y
_atom_site_fract_z
_atom_type_partial_charge
O1    O     O_R   0.488990 0.443920 0.942160 -0.516573
O2    O     O_R   0.823840 0.406530 0.087600 -0.543383
O3    O     O_R   0.999650 0.556080 0.057840 -0.540336
C1    C     C_R   0.655525 0.384074 0.115256 0.665397
O4    O     O_R   0.818390 0.434590 0.944530 -0.513863
O5    O     O_R   0.994160 0.584350 0.913750 -0.533763
C2    C     C_R   0.647677 0.420656 0.924216 0.727206
O6    O     O_R   0.494480 0.415650 0.086250 -0.541316
O7    O     O_3   0.662600 0.549100 0.990070 -0.381084
V1    V     V_3+5 0.935320 0.490890 0.001840 1.557195
O8    O     O_R   0.324240 0.593470 0.912400 -0.535699
C3    C     C_R   0.155016 0.616002 0.884932 0.819385
O9    O     O_R   0.329690 0.565410 0.055470 -0.541932
C4    C     C_R   0.163071 0.579451 0.075810 0.678337
V2    V     V_3+5 0.435990 0.509110 0.998160 1.531268
O10   O     O_3   0.158840 0.450900 0.009930 -0.356791
C5    C     C_3   0.036038 0.660286 0.279188 0.702145
C6    C     C_3   0.341255 0.730968 0.227417 0.354197
C7    C     C_3   0.327392 0.772886 0.282015 0.383985
H1    H     H_    0.068411 0.683647 0.378249 0.239023
H2    H     H_    0.415075 0.770371 0.178498 0.113418
H3    H     H_    0.382426 0.733300 0.335277 0.151135
C8    C     C_1   0.107398 0.876379 0.377271 -0.085045
C9    C     C_3   0.138362 0.709426 0.206589 -0.111314
C10   C     C_3   0.004121 0.714166 0.323858 -0.221216
C11   C     C_3   0.116148 0.793946 0.289964 -0.096485
C12   C     C_3   0.035437 0.842620 0.212609 0.698860
C13   C     C_3   0.041085 0.790579 0.164941 -0.189450
C14   C     C_1   0.111461 0.839198 0.338339 0.197437
C15   C     C_1   0.152315 0.663246 0.159283 0.240556
C16   C     C_1   0.158878 0.625346 0.121015 -0.109884
H4    H     H_    0.137122 0.822135 0.119218 0.224440
C17   C     C_R   0.113089 0.772874 0.880275 -0.367425
C18   C     C_R   0.087893 0.847790 0.880347 0.636528
C19   C     C_R   0.072902 0.911434 0.815888 0.592694
C20   C     C_R   0.084853 0.900698 0.750956 -0.384831
C21   C     C_R   0.109486 0.825144 0.749188 -0.016372
C22   C     C_R   0.122843 0.759925 0.815190 -0.017828
C23   C     C_R   0.119588 0.814121 0.683108 -0.020861
C24   C     C_R   0.137595 0.737095 0.682946 -0.203616
C25   C     C_R   0.148449 0.671366 0.749414 -0.220864
C26   C     C_R   0.144005 0.683369 0.815428 -0.025286
C27   C     C_R   0.142812 0.723277 0.617844 0.416039
C28   C     C_R   0.154786 0.647641 0.618338 0.474579
C29   C     C_R   0.162727 0.584042 0.682624 0.472514
C30   C     C_R   0.161242 0.594884 0.747586 0.407809
H5    H     H_    0.123505 0.725248 0.931827 0.136438
H6    H     H_    0.072935 0.952168 0.702284 0.144318
C31   C     C_R   0.687682 0.228151 0.117130 -0.255219
C32   C     C_R   0.691476 0.154399 0.113552 0.654869
C33   C     C_R   0.662573 0.088530 0.174658 -0.109386
C34   C     C_R   0.634062 0.094544 0.241026 0.076447
C35   C     C_R   0.637389 0.170190 0.247400 0.001607
C36   C     C_R   0.658474 0.237937 0.182771 -0.039116
C37   C     C_R   0.616468 0.181445 0.313904 -0.096380
C38   C     C_R   0.602139 0.258516 0.313982 0.023682
C39   C     C_R   0.613207 0.324664 0.248810 -0.028755
C40   C     C_R   0.645060 0.314515 0.183514 -0.067371
C41   C     C_R   0.575340 0.271092 0.378657 -0.225204
C42   C     C_R   0.554947 0.346299 0.379290 0.142007
C43   C     C_R   0.562114 0.411018 0.314552 0.685459
C44   C     C_R   0.593005 0.400394 0.250478 -0.274620
H7    H     H_    0.706098 0.277575 0.067307 0.136324
H8    H     H_    0.659173 0.031552 0.170294 0.195010
H9    H     H_    0.568213 0.222731 0.429786 0.146171
H10   H     H_    0.599887 0.452429 0.202127 0.150653
O11   O     O_R   0.770890 0.084490 0.414040 -0.544879
O12   O     O_R   0.445980 0.065450 0.555510 -0.538377
O13   O     O_R   0.270670 0.915620 0.586180 -0.529927
C45   C     C_R   0.616644 0.079605 0.575766 0.704891
O14   O     O_R   0.441480 0.093500 0.412450 -0.546326
O15   O     O_R   0.266140 0.943870 0.442100 -0.527059
C46   C     C_R   0.609154 0.114366 0.383788 0.662071
O16   O     O_R   0.775410 0.056240 0.558120 -0.539420
O17   O     O_3   0.602660 0.950990 0.510100 -0.359404
V3    V     V_3+5 0.329740 0.009100 0.498130 1.492134
O18   O     O_R   0.936120 0.934420 0.444240 -0.535736
C47   C     C_R   0.102855 0.921533 0.423087 0.808735
O19   O     O_R   0.940610 0.906370 0.587310 -0.533020
C48   C     C_R   0.109664 0.883483 0.614764 0.818370
V4    V     V_3+5 0.829110 0.990690 0.501470 1.498406
O20   O     O_3   0.106080 0.049010 0.489880 -0.380918
C49   C     C_3   0.841058 0.233061 0.723133 0.483775
C50   C     C_3   0.524044 0.286731 0.669597 -0.022870
C51   C     C_3   0.495926 0.332078 0.722330 0.167234
H11   H     H_    0.618447 0.324337 0.625961 0.238795
C52   C     C_1   0.633756 0.375062 0.878922 -0.065711
C53   C     C_3   0.633580 0.208060 0.707867 -0.095598
C54   C     C_3   0.831123 0.285908 0.769467 1.063135
C55   C     C_3   0.621532 0.291001 0.792892 -0.153200
C56   C     C_3   0.549093 0.204035 0.834795 0.625374
C57   C     C_3   0.541636 0.157753 0.782204 -0.146808
C58   C     C_1   0.625268 0.337298 0.840507 0.218230
C59   C     C_1   0.637012 0.162621 0.659668 0.136047
C60   C     C_1   0.630448 0.125146 0.621035 -0.160795
H12   H     H_    0.627531 0.103839 0.806921 0.183997
N1    N     N_3   0.864441 0.618939 0.267811 -0.568818
H13   H     H_    0.772174 0.655429 0.229681 0.273581
H14   H     H_    0.793342 0.591571 0.316136 0.316032
N2    N     N_3   0.803270 0.726788 0.335330 -0.591226
H15   H     H_    0.724119 0.737904 0.288349 0.300882
H16   H     H_    0.746867 0.676020 0.374181 0.281980
F1    F     F_    0.154205 0.907590 0.181470 -0.623525
F2    F     F_    0.170432 0.510735 0.682066 -0.583595
F3    F     F_    0.076980 0.858480 0.943444 -0.640340
F4    F     F_    0.045273 0.984007 0.816214 -0.685423
F5    F     F_    0.134506 0.782018 0.552723 -0.663638
F6    F     F_    0.157302 0.635952 0.555504 -0.581842
F7    F     F_    0.157998 0.601125 0.319993 -0.567464
F8    F     F_    0.170208 0.529345 0.807995 -0.631655
F9    F     F_    0.538837 0.484710 0.313035 -0.617442
F10   F     F_    0.718157 0.146853 0.049755 -0.596140
N3    N     N_3   0.591275 0.022228 0.298482 -0.612412
H17   H     H_    0.701671 0.008117 0.336541 0.236836
H18   H     H_    0.459398 0.025802 0.320265 0.243583
N4    N     N_3   0.524115 0.355065 0.446399 -0.605140
H19   H     H_    0.506924 0.413937 0.438884 0.306720
H20   H     H_    0.647436 0.336420 0.478009 0.248842
F11   F     F_    0.897368 0.360768 0.729955 -0.592758
F12   F     F_    0.924519 0.276626 0.658077 -0.668178
N5    N     N_3   0.351198 0.276926 0.630794 -0.615861
H21   H     H_    0.286223 0.331077 0.604984 0.292104
H22   H     H_    0.254165 0.237728 0.664520 0.332566
N6    N     N_3   0.561491 0.414009 0.686029 -0.528325
H23   H     H_    0.489081 0.439112 0.636869 0.271762
H24   H     H_    0.526153 0.447028 0.716547 0.293114
N7    N     N_3   0.295130 0.333303 0.741254 -0.499976
H25   H     H_    0.232371 0.278379 0.752851 0.326662
H26   H     H_    0.221423 0.371148 0.696560 0.348808
N8    N     N_3   0.348292 0.129976 0.773824 -0.596986
H27   H     H_    0.308889 0.086588 0.822519 0.309125
H28   H     H_    0.349831 0.100489 0.738279 0.256277
F13   F     F_    0.678773 0.166810 0.889746 -0.600175
N9    N     N_3   0.964008 0.165341 0.758248 -0.593003
H29   H     H_    0.925408 0.133741 0.811172 0.305916
H30   H     H_    0.959516 0.127819 0.729881 0.271978
F14   F     F_    0.949615 0.257584 0.829678 -0.614606
F15   F     F_    0.450748 0.664515 0.256495 -0.637235
N10   N     N_3   0.363747 0.201651 0.868906 -0.525098
H31   H     H_    0.373968 0.232946 0.902927 0.267516
H32   H     H_    0.335023 0.143994 0.903176 0.293804
F16   F     F_    0.443254 0.839437 0.260553 -0.625982
N11   N     N_3   0.857322 0.781987 0.131559 -0.639348
H33   H     H_    0.744125 0.776608 0.165795 0.257301
H34   H     H_    0.832973 0.832914 0.086559 0.299045
N12   N     N_3   0.843560 0.872296 0.215135 -0.588503
H35   H     H_    0.849330 0.908873 0.244447 0.261958
H36   H     H_    0.803381 0.908722 0.163169 0.271296

loop_
_geom_bond_atom_site_label_1
_geom_bond_atom_site_label_2
_ccdc_geom_bond_type
C37   C38   A    
C31   H7    S    
C6    H2    S    
C25   C26   A    
N8    H28   S    
C19   C20   A    
C4    C16   S    
O15   V3    S    
N1    H13   S    
C55   C56   S    
C39   C44   A    
O18   C47   A    
C28   C29   A    
C11   C12   S    
O13   V3    S    
C6    C9    S    
C8    C14   T    
N6    H24   S    
C20   C21   A    
C50   H11   S    
C18   C19   A    
O5    C3    A    
C15   C16   T    
H1    C10   S    
N11   H33   S    
C57   H12   S    
C38   C39   A    
C51   N6    S    
C6    C7    S    
C6    F15   S    
C7    C11   S    
C49   N9    S    
O15   C47   A    
O8    V2    S    
C24   C27   A    
C2    C52   S    
C53   C57   S    
N4    H20   S    
C45   O16   A    
C3    C26   S    
C25   C30   A    
O11   C46   A    
C9    C13   S    
O7    V1    S    
C1    O6    A    
C28   F6    S    
C49   C53   S    
C41   C42   A    
O9    C4    A    
C59   C60   T    
N2    H16   S    
N1    H14   S    
V4    O20   S    
N12   H36   S    
C35   C37   A    
C49   C54   S    
N10   H31   S    
C53   C59   S    
C5    C9    S    
V2    O10   S    
C44   H10   S    
C33   C34   A    
C54   F11   S    
C13   H4    S    
C7    H3    S    
C50   C51   S    
V3    O20   S    
C56   C57   S    
O4    C2    A    
O17   V4    S    
N9    H30   S    
C10   C11   S    
C35   C36   A    
C42   C43   A    
C49   F12   S    
O2    C1    A    
O17   V3    S    
N7    H26   S    
C21   C22   A    
C29   F2    S    
C10   N2    S    
N8    H27   S    
C56   F13   S    
O18   V4    S    
O8    C3    A    
C32   F10   S    
C32   C33   A    
C13   N11   S    
C27   F5    S    
N5    H21   S    
O3    C4    A    
C56   N10   S    
C24   C25   A    
O11   V4    S    
O6    V2    S    
C54   F14   S    
C30   F8    S    
C27   C28   A    
C17   H5    S    
C42   N4    S    
O12   V3    S    
O16   V4    S    
C1    C40   S    
N7    H25   S    
O2    V1    S    
C23   C24   A    
C34   C35   A    
C55   C58   S    
O19   V4    S    
N3    H17   S    
C36   C40   A    
N11   H34   S    
O1    C2    A    
C18   F3    S    
C33   H8    S    
C50   C53   S    
C5    F7    S    
O5    V1    S    
C51   C55   S    
C22   C26   A    
N9    H29   S    
O1    V2    S    
C7    F16   S    
C17   C22   A    
C38   C41   A    
C5    C10   S    
C23   C48   S    
O9    V2    S    
C45   C60   S    
C50   N5    S    
O4    V1    S    
C21   C23   A    
O3    V1    S    
V1    O10   S    
C41   H9    S    
N10   H32   S    
C39   C40   A    
O14   V3    S    
C12   N12   S    
C34   N3    S    
C52   C58   T    
C12   F1    S    
N2    H15   S    
C17   C18   A    
N4    H19   S    
C20   H6    S    
N12   H35   S    
C8    C47   S    
O7    V2    S    
C43   C44   A    
C9    C15   S    
N5    H22   S    
C51   N7    S    
O19   C48   A    
C37   C46   S    
C29   C30   A    
C11   C14   S    
O12   C45   A    
C31   C32   A    
O14   C46   A    
C12   C13   S    
C19   F4    S    
C57   N8    S    
O13   C48   A    
C54   C55   S    
C5    N1    S    
C31   C36   A    
N6    H23   S    
N3    H18   S    
C43   F9    S    
