data_str_m3_o5_o8_f0_pcu.sym.29
_audit_creation_date              2013-03-05T16:49:18-0500
_audit_creation_method            fapswitch 2.2
_symmetry_space_group_name_H-M    P1
_symmetry_Int_Tables_number       1
_space_group_crystal_system       triclinic
_cell_length_a                    8.105441
_cell_length_b                    8.922688
_cell_length_c                    16.714816
_cell_angle_alpha                 88.579923
_cell_angle_beta                  96.158063
_cell_angle_gamma                 89.800182
_cell_volume                      1201.48678802

loop_
_atom_site_label
_atom_site_type_symbol
_atom_site_description
_atom_site_fract_x
_atom_site_fract_y
_atom_site_fract_z
_atom_type_partial_charge
O1    O     O_R   0.636850 0.285340 0.500000 -0.593569
O2    O     O_R   0.363150 0.714660 0.500000 -0.588082
O3    O     O_R   0.363100 0.285350 0.500000 -0.632952
O4    O     O_R   0.636900 0.714650 0.500000 -0.619708
C1    C     C_R   0.499597 0.218154 0.497759 0.969820
C2    C     C_R   0.500179 0.781928 0.501422 1.019381
O5    O     O_R   0.652140 0.498630 0.616140 -0.575496
O6    O     O_R   0.347860 0.501370 0.383860 -0.601909
O7    O     O_R   0.378390 0.498650 0.616130 -0.602548
O8    O     O_R   0.621610 0.501350 0.383870 -0.569600
C3    C     C_R   0.524048 0.494754 0.654340 1.036088
C4    C     C_R   0.475984 0.502052 0.345855 1.011972
Zn1   Zn    Zn3+2 0.682780 0.499990 0.500010 1.122787
Zn2   Zn    Zn3+2 0.317220 0.500010 0.499990 1.106728
N1    N     N_1   0.073640 0.500030 0.499990 0.010544
N2    N     N_1   0.926360 0.499970 0.500010 0.013912
C5    C     C_R   0.543157 0.491115 0.742255 -0.333341
C6    C     C_R   0.452744 0.496737 0.258507 -0.332434
C7    C     C_R   0.445680 0.591624 0.781144 0.237378
C8    C     C_R   0.509667 0.368654 0.222006 0.206851
C9    C     C_R   0.440840 0.575758 0.863180 -0.180731
C10   C     C_R   0.472917 0.353161 0.140035 -0.186569
C11   C     C_R   0.540484 0.469416 0.908484 0.091789
C12   C     C_R   0.382010 0.463598 0.093519 0.128464
C13   C     C_R   0.657211 0.383627 0.872900 0.239649
C14   C     C_R   0.310974 0.585257 0.129374 0.309767
C15   C     C_R   0.648774 0.383745 0.787580 0.295999
C16   C     C_R   0.355100 0.608152 0.212555 0.278401
N3    N     N_2   0.529047 0.452880 0.991524 -0.099762
N4    N     N_2   0.384871 0.466792 0.009675 -0.035341
C17   C     C_1   0.499850 0.065280 0.498710 -0.063647
C18   C     C_1   0.499786 0.934823 0.500174 -0.041826
H1    H     H_    0.523416 0.258482 0.111086 0.252402
H2    H     H_    0.362353 0.650365 0.892777 0.247084
N5    N     N_R   0.606841 0.253984 0.267051 0.214413
O9    O     O_R   0.751954 0.286294 0.303295 -0.327317
O10   O     O_R   0.569146 0.113858 0.256219 -0.302981
N6    N     N_R   0.350775 0.710472 0.738062 0.243118
O11   O     O_R   0.417186 0.793498 0.685163 -0.379042
O12   O     O_R   0.207975 0.750259 0.759962 -0.307853
S1    S     S_3+6 0.809685 0.279312 0.936985 0.159047
O13   O     O_2   0.752759 0.119884 0.944037 -0.165048
O14   O     O_2   0.973669 0.282328 0.902619 -0.175373
O15   O     O_3   0.838412 0.347471 0.030415 -0.485478
H3    H     H_    0.860947 0.455438 0.022765 0.385011
S2    S     S_3+6 0.174326 0.707251 0.067088 0.121040
O16   O     O_2   0.033860 0.757859 0.111985 -0.191886
O17   O     O_2   0.269967 0.840965 0.041504 -0.195256
O18   O     O_3   0.093577 0.620013 0.983900 -0.556589
H4    H     H_    0.025880 0.697405 0.951820 0.403090
S3    S     S_3+6 0.754703 0.244721 0.736356 0.116405
O19   O     O_2   0.809275 0.110485 0.788491 -0.156835
O20   O     O_2   0.640440 0.189856 0.666808 -0.342323
O21   O     O_3   0.922087 0.323778 0.701706 -0.500558
H5    H     H_    0.958862 0.251731 0.662986 0.382305
S4    S     S_3+6 0.300689 0.776843 0.259573 0.121758
O22   O     O_2   0.141700 0.751272 0.296499 -0.248080
O23   O     O_2   0.435232 0.815399 0.324478 -0.322309
O24   O     O_3   0.276720 0.925207 0.195415 -0.408678
H6    H     H_    0.229789 0.005547 0.226181 0.397918

loop_
_geom_bond_atom_site_label_1
_geom_bond_atom_site_label_2
_geom_bond_distance
_ccdc_geom_bond_type
C7    C9    1.379774 A    
O5    C3    1.276017 A    
O7    Zn2   1.951089 S    
N3    N4    1.245001 D    
C7    N6    1.439597 S    
C13   C15   1.420378 A    
S1    O14   1.503541 D    
S1    O13   1.502776 D    
C14   C16   1.417964 A    
C17   C18   1.163682 T    
S4    O24   1.680285 S    
O6    C4    1.274144 A    
S3    O21   1.681883 S    
C9    C11   1.397813 A    
C16   S4    1.790545 S    
O24   H6    0.990639 S    
S4    O22   1.503132 D    
N6    O12   1.301618 A    
C15   S3    1.792190 S    
O7    C3    1.280558 A    
S2    O18   1.682159 S    
O2    C2    1.262585 A    
O3    Zn2   1.949831 S    
O8    C4    1.279014 A    
N5    O9    1.300659 A    
O1    C1    1.263032 A    
C11   N3    1.405151 S    
N5    O10   1.300534 A    
S4    O23   1.500619 D    
C6    C8    1.408004 A    
C11   C13   1.404669 A    
N6    O11   1.301078 A    
O2    Zn2   1.952377 S    
S1    O15   1.683130 S    
C10   C12   1.397324 A    
C12   N4    1.403693 S    
O1    Zn1   1.952375 S    
C8    C10   1.381019 A    
S3    O20   1.499717 D    
C4    C6    1.453912 S    
N1    N2    1.193807 T    
C5    C15   1.429611 A    
S2    O17   1.503190 D    
O5    Zn1   1.982914 S    
C6    C16   1.425086 A    
O15   H3    0.988883 S    
O4    C2    1.261238 A    
O18   H4    0.990629 S    
S2    O16   1.503283 D    
Zn1   N2    1.974323 S    
C13   S1    1.788755 S    
O4    Zn1   1.949830 S    
C10   H1    1.084287 S    
C14   S2    1.784242 S    
O21   H5    0.990785 S    
C3    C5    1.460547 S    
C2    C18   1.363862 S    
C1    C17   1.363736 S    
C9    H2    1.083277 S    
O6    Zn2   1.982914 S    
C5    C7    1.408968 A    
Zn2   N1    1.974323 S    
C8    N5    1.436349 S    
S3    O19   1.500501 D    
C12   C14   1.403914 A    
O3    C1    1.261079 A    
O8    Zn1   1.951089 S    
