data_str_m2_o9_o16_f0_pcu.sym.12
_audit_creation_date              2012-10-26T19:17:53-0400
_audit_creation_method            fapswitch 2.2
_symmetry_space_group_name_H-M    P1
_symmetry_Int_Tables_number       1
_space_group_crystal_system       triclinic
_cell_length_a                    10.82772
_cell_length_b                    12.303569
_cell_length_c                    13.269464
_cell_angle_alpha                 116.496433
_cell_angle_beta                  79.060557
_cell_angle_gamma                 100.443174
_cell_volume                      1543.9086577

loop_
_atom_site_label
_atom_site_type_symbol
_atom_type_description
_atom_site_fract_x
_atom_site_fract_y
_atom_site_fract_z
_atom_type_partial_charge
C1    C     C_R   0.515669 0.854059 0.286819 0.531803
C2    C     C_R   0.203232 0.304636 0.352616 -0.138523
C3    C     C_R   0.194809 0.239664 0.236606 -0.170384
C4    C     C_R   0.736386 0.001192 0.504349 0.540163
C5    C     C_R   0.182567 0.112289 0.186334 -0.116758
C6    C     C_R   0.169455 0.047957 0.253374 0.290995
C7    C     C_R   0.162647 0.114195 0.372346 0.076998
C8    C     C_R   0.436059 0.262413 0.028571 -0.144429
C9    C     C_R   0.491866 0.226036 0.832432 -0.002393
C10   C     C_R   0.624054 0.814254 0.094841 -0.131235
C11   C     C_R   0.677448 0.734495 0.988897 0.242512
C12   C     C_R   0.645898 0.767019 0.742833 -0.031307
C13   C     C_R   0.639660 0.609271 0.948306 -0.119739
C14   C     C_R   0.552509 0.560985 0.015803 -0.016955
C15   C     C_R   0.502416 0.641850 0.125750 0.005867
C16   C     C_R   0.489653 0.144745 0.712343 0.541096
C17   C     C_R   0.517470 0.433522 0.979427 0.030107
C18   C     C_R   0.457925 0.388219 0.059887 0.055802
C19   C     C_R   0.410503 0.468688 0.167245 -0.140475
C20   C     C_R   0.418392 0.591389 0.193340 -0.122296
C21   C     C_R   0.532642 0.350463 0.865067 -0.141933
C22   C     C_R   0.450912 0.181373 0.914841 -0.149996
C23   C     C_R   0.042200 0.948039 0.562594 -0.154731
C24   C     C_R   0.540491 0.769579 0.165898 -0.058345
C25   C     C_R   0.698235 0.344951 0.328941 -0.150111
C26   C     C_R   0.330152 0.760409 0.644707 0.039977
C27   C     C_R   0.293528 0.663370 0.674820 -0.175956
C28   C     C_R   0.262921 0.000616 0.498979 0.553691
C29   C     C_R   0.356302 0.558765 0.619136 -0.150736
C30   C     C_R   0.457371 0.550149 0.532332 -0.012952
C31   C     C_R   0.491497 0.652036 0.504501 0.179539
C32   C     C_R   0.527069 0.445694 0.473396 -0.017607
C33   C     C_R   0.627808 0.444987 0.387524 0.029395
C34   C     C_R   0.128880 0.003329 0.501270 0.004895
C35   C     C_R   0.659063 0.544761 0.361536 -0.174706
C36   C     C_R   0.593431 0.646266 0.419504 -0.089483
C37   C     C_R   0.502670 0.341586 0.496331 0.042720
C38   C     C_R   0.669561 0.245789 0.355891 0.041329
C39   C     C_R   0.649678 0.892938 0.779373 -0.058625
C40   C     C_R   0.739774 0.953103 0.725556 -0.051921
C41   C     C_R   0.825568 0.886791 0.633399 0.040201
C42   C     C_R   0.824678 0.761164 0.600508 -0.104328
C43   C     C_R   0.735223 0.701714 0.655368 -0.085299
C44   C     C_3   0.240881 0.865276 0.127673 -0.015416
C45   C     C_R   0.084235 0.058098 0.443974 0.006306
C46   C     C_3   0.215523 0.728163 0.091520 -0.370433
C47   C     C_3   0.887206 0.792951 0.958457 0.000801
C48   C     C_3   0.987466 0.837946 0.884311 -0.373650
C49   C     C_R   0.955426 0.056909 0.449348 -0.125680
C50   C     C_R   0.869249 0.001691 0.509176 -0.005367
C51   C     C_R   0.912362 0.946794 0.567744 -0.034515
C52   C     C_R   0.186598 0.242150 0.420591 -0.127391
Cu1   Cu    Cu3+1 0.529370 0.098270 0.475420 0.924237
Cu2   Cu    Cu3+1 0.470630 0.901730 0.524580 0.912495
H1    H     H_    0.574894 0.720292 0.783482 0.121533
H2    H     H_    0.358185 0.644263 0.267834 0.153641
H3    H     H_    0.723253 0.167982 0.311080 0.119667
H4    H     H_    0.736683 0.545368 0.296659 0.113282
H5    H     H_    0.775267 0.343763 0.263140 0.093641
H6    H     H_    0.280977 0.841290 0.688324 0.121599
H7    H     H_    0.324074 0.486554 0.646005 0.094358
H8    H     H_    0.216357 0.669245 0.741573 0.095271
H9    H     H_    0.740140 0.050331 0.753089 0.096800
H10   H     H_    0.890568 0.708673 0.530208 0.105624
H11   H     H_    0.733419 0.604518 0.628502 0.112762
H12   H     H_    0.195546 0.287579 0.185220 0.113427
H13   H     H_    0.075406 0.906738 0.608193 0.125298
H14   H     H_    0.922403 0.097314 0.402753 0.135738
H15   H     H_    0.179357 0.293823 0.511921 0.103623
H16   H     H_    0.214311 0.403538 0.391027 0.124070
H17   H     H_    0.331619 0.898549 0.165484 0.144997
H18   H     H_    0.250515 0.881496 0.050397 0.112614
H19   H     H_    0.126204 0.691949 0.052199 0.146935
H20   H     H_    0.294545 0.682050 0.028586 0.105910
H21   H     H_    0.207204 0.708112 0.166413 0.159140
H22   H     H_    0.401021 0.226807 0.090892 0.119454
H23   H     H_    0.175566 0.064007 0.096282 0.098357
H24   H     H_    0.911134 0.704068 0.948656 0.128006
H25   H     H_    0.889903 0.861361 0.048415 0.147955
H26   H     H_    0.966854 0.927077 0.892818 0.158636
H27   H     H_    0.082139 0.849714 0.910841 0.082655
H28   H     H_    0.988578 0.770692 0.794006 0.152626
H29   H     H_    0.427919 0.333869 0.559833 0.118381
H30   H     H_    0.627922 0.718879 0.395496 0.191134
H31   H     H_    0.423995 0.084817 0.891420 0.116164
H32   H     H_    0.358860 0.436562 0.228465 0.110562
H33   H     H_    0.566511 0.382597 0.800078 0.119921
H34   H     H_    0.656160 0.910904 0.124579 0.135274
H35   H     H_    0.685706 0.551120 0.866664 0.113063
H36   H     H_    0.582072 0.943597 0.848746 0.093828
N1    N     N_R   0.573890 0.246290 0.438210 -0.235123
N2    N     N_R   0.426890 0.754320 0.561170 -0.235731
O1    O     O_R   0.536940 0.972510 0.318130 -0.507181
O2    O     O_3   0.767564 0.779158 0.923977 -0.568961
O3    O     O_R   0.487330 0.806530 0.359650 -0.527694
O4    O     O_R   0.705160 0.082990 0.479250 -0.512297
O5    O     O_R   0.655550 0.917010 0.520760 -0.511798
O6    O     O_R   0.512670 0.193470 0.640350 -0.513123
O7    O     O_R   0.463060 0.027490 0.681870 -0.514169
O8    O     O_R   0.344450 0.082990 0.479240 -0.500928
O9    O     O_R   0.294840 0.917010 0.520750 -0.514713
O10   O     O_3   0.139091 0.922331 0.206933 -0.571485

loop_
_geom_bond_atom_site_label_1
_geom_bond_atom_site_label_2
_ccdc_geom_bond_type
C21   H33   S    
C49   H14   S    
C27   C29   A    
C41   C42   A    
Cu2   O9    S    
C19   C20   A    
C47   H25   S    
C20   H2    S    
C19   H32   S    
C9    C21   A    
Cu1   Cu2   S    
C10   H34   S    
C26   C27   A    
C40   H9    S    
C35   H4    S    
C7    C45   S    
C9    C16   S    
C7    C52   A    
C12   C43   A    
C30   C31   A    
C9    C22   A    
C26   N2    A    
C8    H22   S    
C48   H27   S    
C44   H17   S    
C18   C19   A    
C22   H31   S    
C23   H13   S    
C52   H15   S    
C4    O4    A    
C28   O9    A    
C35   C36   A    
Cu1   N1    S    
C8    C22   A    
Cu2   O5    S    
C39   H36   S    
C43   H11   S    
C28   O8    A    
C28   C34   S    
C13   C14   A    
Cu1   O4    S    
C14   C17   A    
C46   H21   S    
C44   C46   S    
C50   C51   A    
Cu1   O8    S    
C15   C20   A    
C29   H7    S    
C37   N1    A    
Cu1   O1    S    
C39   C40   A    
C44   O10   S    
C10   C24   A    
C38   N1    A    
C8    C18   A    
C4    C50   S    
Cu2   N2    S    
C29   C30   A    
C27   H8    S    
C4    O5    A    
C25   C38   A    
C38   H3    S    
C23   C51   A    
C47   C48   S    
C45   C49   A    
C1    O3    A    
C23   C34   A    
C17   C18   A    
C34   C45   A    
C32   C37   A    
Cu2   O3    S    
C2    C52   A    
C11   O2    S    
C15   C24   A    
C49   C50   A    
Cu2   O7    S    
C3    H12   S    
C42   C43   A    
C5    H23   S    
C42   H10   S    
C46   H20   S    
C40   C41   A    
C13   H35   S    
C31   C36   A    
C3    C5    A    
C16   O7    A    
C6    C7    A    
Cu1   O6    S    
C32   C33   A    
C48   H26   S    
C12   C39   A    
C2    C3    A    
C30   C32   A    
C11   C13   A    
C16   O6    A    
C5    C6    A    
C36   H30   S    
C33   C35   A    
C47   O2    S    
C48   H28   S    
C44   H18   S    
C6    O10   S    
C17   C21   A    
C12   H1    S    
C10   C11   A    
C1    C24   S    
C1    O1    A    
C31   N2    A    
C14   C15   A    
C37   H29   S    
C25   H5    S    
C47   H24   S    
C2    H16   S    
C26   H6    S    
C41   C51   S    
C46   H19   S    
C25   C33   A    
