data_str_m2_o10_o28_f0_pcu.sym.173
_audit_creation_date              2012-12-10T16:50:11-0500
_audit_creation_method            fapswitch 2.2
_symmetry_space_group_name_H-M    P1
_symmetry_Int_Tables_number       1
_space_group_crystal_system       triclinic
_cell_length_a                    23.448951
_cell_length_b                    8.685954
_cell_length_c                    7.449621
_cell_angle_alpha                 103.466191
_cell_angle_beta                  93.877893
_cell_angle_gamma                 92.50058
_cell_volume                      1469.46021775

loop_
_atom_site_label
_atom_site_type_symbol
_atom_type_description
_atom_site_fract_x
_atom_site_fract_y
_atom_site_fract_z
_atom_type_partial_charge
C1    C     C_R   0.498314 0.199516 0.452854 0.912095
C2    C     C_R   0.501585 0.800473 0.547143 0.914178
C3    C     C_R   0.243182 0.632454 0.576059 -0.134912
C4    C     C_R   0.757693 0.374920 0.422807 -0.139115
C5    C     C_R   0.302492 0.634341 0.580274 0.103272
C6    C     C_R   0.698386 0.369897 0.420203 0.100912
C7    C     C_R   0.329113 0.494001 0.508960 -0.143551
C8    C     C_R   0.670920 0.508757 0.491575 -0.143682
C9    C     C_R   0.296187 0.349202 0.444626 0.068096
C10   C     C_R   0.702957 0.655218 0.554593 0.065312
C11   C     C_R   0.236120 0.345286 0.455273 0.161531
C12   C     C_R   0.763038 0.662093 0.544233 0.157844
C13   C     C_R   0.209632 0.490402 0.512962 0.260580
C14   C     C_R   0.790308 0.518617 0.484590 0.259968
C15   C     C_2   0.497428 0.031280 0.426628 -0.291640
C16   C     C_2   0.502377 0.968708 0.573352 -0.291285
C17   C     C_R   0.391258 0.498595 0.502748 0.870170
C18   C     C_R   0.608747 0.501494 0.497282 0.871966
C19   C     C_R   0.883432 0.551992 0.654837 0.541393
C20   C     C_R   0.116584 0.459050 0.341036 0.520293
C21   C     C_R   0.876856 0.471449 0.324491 0.530580
C22   C     C_R   0.123070 0.544087 0.671261 0.541525
C23   C     C_R   0.936485 0.463609 0.325457 -0.021525
C24   C     C_R   0.063527 0.554001 0.669742 -0.023007
C25   C     C_R   0.969951 0.510456 0.495435 -0.011821
C26   C     C_R   0.030115 0.507761 0.499610 -0.012258
C27   C     C_R   0.943353 0.558045 0.661534 -0.031133
C28   C     C_R   0.056685 0.458147 0.333756 -0.023641
C29   C     C_R   0.963328 0.409933 0.161446 -0.177806
C30   C     C_R   0.036665 0.607785 0.833723 -0.171694
C31   C     C_R   0.022844 0.407187 0.165585 -0.189503
C32   C     C_R   0.977139 0.609476 0.829662 -0.196406
Cu1   Cu    Cu3+1 0.506340 0.517380 0.684380 1.021840
Cu2   Cu    Cu3+1 0.493660 0.482620 0.315620 1.022104
H1    H     H_    0.938463 0.369946 0.029446 0.199005
H2    H     H_    0.061490 0.647421 0.965835 0.198378
H3    H     H_    0.042216 0.364364 0.036801 0.194582
H4    H     H_    0.957682 0.651354 0.958486 0.191394
H5    H     H_    0.222765 0.742346 0.624099 0.170537
H6    H     H_    0.778833 0.266259 0.374312 0.171873
H7    H     H_    0.492710 0.958684 0.285640 0.189869
H8    H     H_    0.507093 0.041303 0.714340 0.190062
H9    H     H_    0.454850 0.378857 0.948807 0.240686
H10   H     H_    0.545149 0.621144 0.051195 0.240701
N1    N     N_R   0.851597 0.516174 0.487763 -0.461596
N2    N     N_R   0.148362 0.496276 0.508494 -0.462085
N3    N     N_2   0.484110 0.456420 0.038520 -0.204764
N4    N     N_2   0.515890 0.543580 0.961480 -0.204918
O1    O     O_R   0.504120 0.286130 0.619770 -0.588703
O2    O     O_R   0.495880 0.713870 0.380230 -0.588358
O3    O     O_R   0.493410 0.256770 0.308360 -0.566129
O4    O     O_R   0.506590 0.743230 0.691640 -0.565716
O5    O     O_R   0.423230 0.514630 0.655730 -0.574608
O6    O     O_R   0.576770 0.485370 0.344270 -0.574755
O7    O     O_R   0.412530 0.485280 0.344320 -0.556368
O8    O     O_R   0.587470 0.514720 0.655680 -0.556742
O9    O     O_2   0.857109 0.578528 0.813761 -0.507081
O10   O     O_2   0.142950 0.421258 0.182447 -0.509218
O11   O     O_2   0.844360 0.434721 0.162079 -0.498418
O12   O     O_2   0.155431 0.580831 0.833969 -0.497337
I1    I     I_    0.349345 0.854055 0.694083 -0.315496
I2    I     I_    0.652868 0.148311 0.305757 -0.307589
I3    I     I_    0.338025 0.137959 0.330099 -0.320149
I4    I     I_    0.659330 0.865687 0.657622 -0.326984
C33   C     C_3   0.201366 0.187548 0.417031 -0.356040
C34   C     C_3   0.207663 0.112786 0.583078 -0.760990
H11   H     H_    0.253171 0.093302 0.616994 0.287612
H12   H     H_    0.190954 0.191197 0.705800 0.273206
H13   H     H_    0.182749 0.996677 0.550939 0.236315
H14   H     H_    0.155100 0.199864 0.388780 0.208760
H15   H     H_    0.214424 0.105183 0.291191 0.241293
C35   C     C_3   0.796593 0.821389 0.576949 -0.376048
C36   C     C_3   0.808906 0.903246 0.782460 -0.674505
H16   H     H_    0.812504 0.033842 0.799152 0.244322
H17   H     H_    0.774641 0.874059 0.866990 0.280805
H18   H     H_    0.850255 0.868416 0.837290 0.253788
H19   H     H_    0.837851 0.809125 0.511489 0.194443
H20   H     H_    0.772294 0.900102 0.505825 0.226283

loop_
_geom_bond_atom_site_label_1
_geom_bond_atom_site_label_2
_ccdc_geom_bond_type
C34   H12   S    
C16   H8    S    
C36   H16   S    
C19   O9    S    
Cu1   O4    S    
Cu2   O3    S    
C23   C29   A    
C24   C26   A    
C21   O11   S    
C22   O12   S    
C13   N2    S    
C34   H13   S    
Cu1   O1    S    
C15   C16   D    
C35   H20   S    
C2    O2    A    
C4    H6    S    
C7    C17   S    
C1    C15   S    
C32   H4    S    
C2    C16   S    
C17   O7    A    
C3    C13   A    
C18   O8    A    
Cu1   O8    S    
C34   H11   S    
C12   C35   S    
C3    H5    S    
Cu2   O7    S    
C36   H17   S    
C10   C12   A    
C14   N1    S    
C21   N1    A    
Cu1   O5    S    
Cu2   O2    S    
C15   H7    S    
C4    C6    A    
C5    C7    A    
C6    C8    A    
C20   C28   A    
C25   C26   A    
C33   H15   S    
C8    C18   S    
C31   H3    S    
C35   H19   S    
C1    O3    A    
N3    N4    D    
Cu1   Cu2   S    
C5    I1    S    
C9    C11   A    
C2    O4    A    
C22   N2    A    
C12   C14   A    
Cu2   O6    S    
C21   C23   A    
C36   H18   S    
C22   C24   A    
C20   O10   S    
C17   O5    A    
C19   C27   A    
C7    C9    A    
C27   C32   A    
C9    I3    S    
C28   C31   A    
C10   I4    S    
C35   C36   S    
C3    C5    A    
C19   N1    A    
C25   C27   A    
C29   H1    S    
C26   C28   A    
C30   H2    S    
C6    I2    S    
C29   C31   A    
C30   C32   A    
C11   C13   A    
H9    N3    S    
C23   C25   A    
C4    C14   A    
C24   C30   A    
C18   O6    A    
C11   C33   S    
C8    C10   A    
C33   C34   S    
Cu1   N4    S    
Cu2   N3    S    
C33   H14   S    
C1    O1    A    
C20   N2    A    
H10   N4    S    
