data_str_m9_o2_o23_f0_sra.sym.55
_audit_creation_date              2012-12-11T16:31:30-0500
_audit_creation_method            fapswitch 2.2
_symmetry_space_group_name_H-M    P1
_symmetry_Int_Tables_number       1
_space_group_crystal_system       triclinic
_cell_length_a                    6.961797
_cell_length_b                    18.172508
_cell_length_c                    20.281811
_cell_angle_alpha                 68.355585
_cell_angle_beta                  90.263975
_cell_angle_gamma                 90.783829
_cell_volume                      2384.77483769

loop_
_atom_site_label
_atom_site_type_symbol
_atom_type_description
_atom_site_fract_x
_atom_site_fract_y
_atom_site_fract_z
_atom_type_partial_charge
O1    O     O_R   0.488990 0.443920 0.942160 -0.537508
O2    O     O_R   0.823840 0.406530 0.087600 -0.537998
O3    O     O_R   0.999650 0.556080 0.057840 -0.535993
C1    C     C_R   0.654713 0.383615 0.115061 0.693817
O4    O     O_R   0.818390 0.434590 0.944530 -0.538630
O5    O     O_R   0.994160 0.584350 0.913750 -0.533159
C2    C     C_R   0.649250 0.420539 0.924094 0.723001
O6    O     O_R   0.494480 0.415650 0.086250 -0.536785
O7    O     O_3   0.662600 0.549100 0.990070 -0.367556
V1    V     V_3+5 0.935320 0.490890 0.001840 1.425250
O8    O     O_R   0.324240 0.593470 0.912400 -0.541194
C3    C     C_R   0.156206 0.617273 0.885654 0.694428
O9    O     O_R   0.329690 0.565410 0.055470 -0.540246
C4    C     C_R   0.161840 0.579635 0.075825 0.722918
V2    V     V_3+5 0.435990 0.509110 0.998160 1.418390
O10   O     O_3   0.158840 0.450900 0.009930 -0.367368
C5    C     C_3   0.982135 0.677633 0.263182 -0.337003
C6    C     C_3   0.335262 0.708136 0.244236 -0.334396
C7    C     C_3   0.326680 0.756900 0.293170 -0.322016
H1    H     H_    0.998618 0.686506 0.368113 0.158997
H2    H     H_    0.011309 0.614562 0.295829 0.141252
H3    H     H_    0.452106 0.732241 0.204502 0.136027
H4    H     H_    0.371540 0.645677 0.276514 0.136274
H5    H     H_    0.358996 0.717670 0.348745 0.151557
H6    H     H_    0.439364 0.804236 0.276684 0.135567
C8    C     C_1   0.111320 0.878694 0.375061 -0.132352
C9    C     C_3   0.140555 0.710911 0.205823 0.292774
C10   C     C_3   0.973535 0.726364 0.312149 -0.310549
C11   C     C_3   0.125839 0.794290 0.289609 0.277366
C12   C     C_3   0.086290 0.847681 0.211260 -0.340761
C13   C     C_3   0.095028 0.798952 0.162278 -0.322827
C14   C     C_1   0.117721 0.840903 0.336571 -0.079243
C15   C     C_1   0.148690 0.664180 0.158939 -0.101580
C16   C     C_1   0.154970 0.625851 0.120892 -0.192761
H7    H     H_    0.955166 0.803066 0.134416 0.134691
H8    H     H_    0.207058 0.824898 0.120916 0.135940
H9    H     H_    0.942207 0.874916 0.206767 0.132450
H10   H     H_    0.839988 0.679390 0.237324 0.138166
H11   H     H_    0.827307 0.751305 0.309572 0.141369
H12   H     H_    0.194011 0.896882 0.193186 0.138371
H13   H     H_    0.374264 0.531587 0.697728 0.125274
C17   C     C_R   0.040848 0.773955 0.875427 -0.132374
C18   C     C_R   0.984888 0.848507 0.872260 -0.124876
C19   C     C_R   0.973948 0.911033 0.807262 -0.119682
C20   C     C_R   0.017785 0.899402 0.744863 -0.136893
C21   C     C_R   0.072752 0.824098 0.746152 0.056889
C22   C     C_R   0.086098 0.760304 0.812998 0.073503
C23   C     C_R   0.111883 0.811638 0.682311 -0.170157
C24   C     C_R   0.161099 0.734035 0.686104 0.029861
C25   C     C_R   0.199517 0.673903 0.753486 0.042629
C26   C     C_R   0.149958 0.685272 0.816615 -0.166987
C27   C     C_R   0.167169 0.711933 0.625722 0.230146
C28   C     C_R   0.251401 0.640984 0.630006 -0.095837
C29   C     C_R   0.312838 0.587189 0.694660 -0.170575
C30   C     C_R   0.279703 0.601622 0.756220 -0.148397
H14   H     H_    0.050187 0.727478 0.927344 0.092886
H15   H     H_    0.951060 0.857919 0.920581 0.105973
H16   H     H_    0.930974 0.968908 0.805121 0.103151
H17   H     H_    0.006851 0.950085 0.695781 0.105895
H18   H     H_    0.257888 0.624963 0.583659 0.142713
H19   H     H_    0.317088 0.555173 0.805763 0.125318
H20   H     H_    0.420823 0.472254 0.300986 0.108866
C31   C     C_R   0.762439 0.225250 0.127789 -0.134327
C32   C     C_R   0.816061 0.150020 0.132118 -0.123638
C33   C     C_R   0.806375 0.086533 0.196543 -0.130467
C34   C     C_R   0.742609 0.097756 0.257118 -0.146574
C35   C     C_R   0.689096 0.173651 0.254670 0.069890
C36   C     C_R   0.699536 0.238820 0.188583 0.070007
C37   C     C_R   0.622233 0.184854 0.316296 -0.183683
C38   C     C_R   0.566549 0.261399 0.311758 0.066970
C39   C     C_R   0.577012 0.326576 0.245672 0.068772
C40   C     C_R   0.643543 0.315351 0.184008 -0.186070
C41   C     C_R   0.504098 0.274976 0.372601 -0.131036
C42   C     C_R   0.451184 0.350259 0.368346 -0.115919
C43   C     C_R   0.460949 0.413763 0.303926 -0.130349
C44   C     C_R   0.524033 0.402503 0.243281 -0.140397
H21   H     H_    0.769493 0.272257 0.076115 0.101602
H22   H     H_    0.864138 0.140858 0.085068 0.106041
H23   H     H_    0.847085 0.028089 0.199539 0.104576
H24   H     H_    0.734514 0.046044 0.305550 0.105506
H25   H     H_    0.496991 0.227934 0.424258 0.105913
H26   H     H_    0.403598 0.359443 0.415446 0.118884
H27   H     H_    0.532179 0.454211 0.194845 0.110577
O11   O     O_R   0.770890 0.084490 0.414040 -0.542678
O12   O     O_R   0.445980 0.065450 0.555510 -0.538474
O13   O     O_R   0.270670 0.915620 0.586180 -0.535027
C45   C     C_R   0.614918 0.079633 0.575996 0.709551
O14   O     O_R   0.441480 0.093500 0.412450 -0.543823
O15   O     O_R   0.266140 0.943870 0.442100 -0.536195
C46   C     C_R   0.610746 0.116546 0.385182 0.680639
O16   O     O_R   0.775410 0.056240 0.558120 -0.540779
O17   O     O_3   0.602660 0.950990 0.510100 -0.354449
V3    V     V_3+5 0.329740 0.009100 0.498130 1.453491
O18   O     O_R   0.936120 0.934420 0.444240 -0.523067
C47   C     C_R   0.103914 0.923542 0.421326 0.782734
O19   O     O_R   0.940610 0.906370 0.587310 -0.521167
C48   C     C_R   0.108590 0.880821 0.613295 0.769733
V4    V     V_3+5 0.829110 0.990690 0.501470 1.482746
O20   O     O_3   0.106080 0.049010 0.489880 -0.377911
C49   C     C_3   0.780545 0.277826 0.681438 0.256949
C50   C     C_3   0.426201 0.246971 0.708085 0.387440
C51   C     C_3   0.430236 0.296094 0.757981 -0.410673
H28   H     H_    0.748150 0.389366 0.700375 0.177269
H29   H     H_    0.403079 0.291360 0.653721 0.110467
H30   H     H_    0.397958 0.359024 0.725681 0.117317
H31   H     H_    0.319709 0.278048 0.800200 0.145863
C52   C     C_1   0.640272 0.375099 0.878502 -0.199679
C53   C     C_3   0.626737 0.209718 0.706873 0.147139
C54   C     C_3   0.780844 0.326151 0.731315 -0.385210
C55   C     C_3   0.631887 0.291907 0.792064 0.202176
C56   C     C_3   0.680617 0.203647 0.833749 -0.357418
C57   C     C_3   0.680415 0.155865 0.783697 -0.436353
C58   C     C_1   0.636053 0.337554 0.839823 -0.052115
C59   C     C_1   0.625863 0.163361 0.659590 0.023764
C60   C     C_1   0.623186 0.125405 0.621276 -0.170620
H32   H     H_    0.822972 0.130086 0.783829 0.139865
H33   H     H_    0.584040 0.103275 0.803890 0.175249
H34   H     H_    0.823602 0.199532 0.859328 0.142087
H35   H     H_    0.922990 0.248997 0.685574 0.129687
H36   H     H_    0.927096 0.325012 0.754041 0.120119
H37   H     H_    0.576029 0.177014 0.877599 0.147060
Br1   Br    Br    0.005598 0.757141 0.545012 -0.602074
O21   O     O_3   0.741232 0.328424 0.610501 -0.557889
C61   C     C_3   0.913026 0.362279 0.574780 -0.251990
H38   H     H_    0.002551 0.316384 0.566170 0.148334
H39   H     H_    0.996382 0.393280 0.603981 0.135268
H40   H     H_    0.876070 0.406681 0.521964 0.165694
O22   O     O_3   0.273627 0.190727 0.717374 -0.558779
C62   C     C_3   0.205551 0.153458 0.787469 -0.288616
H41   H     H_    0.093815 0.190274 0.797940 0.133949
H42   H     H_    0.315596 0.141839 0.828990 0.140963
H43   H     H_    0.141626 0.095309 0.792924 0.157155

loop_
_geom_bond_atom_site_label_1
_geom_bond_atom_site_label_2
_ccdc_geom_bond_type
C8    C14   T    
C50   C51   S    
C33   H23   S    
C45   O16   A    
C56   H37   S    
C41   C42   A    
C29   C30   A    
C56   C57   S    
C1    C40   S    
C1    O6    A    
O22   C62   S    
C59   C60   T    
O17   V4    S    
O21   C61   S    
C20   C21   A    
C9    C15   S    
C23   C48   S    
C56   H34   S    
C10   C11   S    
C11   C14   S    
O5    C3    A    
C57   H33   S    
O18   V4    S    
V2    O10   S    
V4    O20   S    
C50   O22   S    
C51   H30   S    
C6    C7    S    
C21   C22   A    
C53   C59   S    
O13   C48   A    
C55   C56   S    
C52   C58   T    
C17   H14   S    
O14   V3    S    
O12   V3    S    
C19   H16   S    
O19   V4    S    
C38   C39   A    
O1    V2    S    
O7    V1    S    
V3    O20   S    
C45   C60   S    
C5    H10   S    
C62   H43   S    
C50   C53   S    
C34   C35   A    
C49   C54   S    
C6    H3    S    
O9    C4    A    
O18   C47   A    
O11   C46   A    
C42   H26   S    
C35   C36   A    
C44   H27   S    
C41   H25   S    
C28   H18   S    
C15   C16   T    
O12   C45   A    
C21   C23   A    
C49   C53   S    
C42   C43   A    
C6    C9    S    
C9    C13   S    
C6    H4    S    
C5    C9    S    
O4    C2    A    
C22   C26   A    
H1    C10   S    
C10   H11   S    
C28   C29   A    
C5    H2    S    
C53   C57   S    
C12   H9    S    
C35   C37   A    
O15   C47   A    
O2    C1    A    
C43   C44   A    
O5    V1    S    
C11   C12   S    
O13   V3    S    
C12   C13   S    
C36   C40   A    
C24   C27   A    
O19   C48   A    
C38   C41   A    
C25   C26   A    
C12   H12   S    
C49   H35   S    
C55   C58   S    
O3    C4    A    
C61   H40   S    
C23   C24   A    
O14   C46   A    
C33   C34   A    
O6    V2    S    
O8    V2    S    
O9    V2    S    
C18   C19   A    
C2    C52   S    
H20   C43   S    
C51   C55   S    
C17   C18   A    
C37   C46   S    
O2    V1    S    
C57   H32   S    
C3    C26   S    
C27   C28   A    
C61   H39   S    
C62   H41   S    
C31   H21   S    
C8    C47   S    
C31   C36   A    
C20   H17   S    
O1    C2    A    
C5    C10   S    
C32   H22   S    
C19   C20   A    
C4    C16   S    
C27   Br1   S    
O8    C3    A    
C50   H29   S    
C34   H24   S    
C25   C30   A    
H28   C54   S    
C49   O21   S    
O11   V4    S    
C32   C33   A    
C7    H5    S    
O7    V2    S    
O4    V1    S    
O3    V1    S    
V1    O10   S    
C54   C55   S    
C39   C44   A    
C30   H19   S    
O17   V3    S    
C51   H31   S    
C13   H7    S    
C17   C22   A    
O16   V4    S    
O15   V3    S    
C37   C38   A    
C7    H6    S    
H13   C29   S    
C18   H15   S    
C31   C32   A    
C39   C40   A    
C24   C25   A    
C13   H8    S    
C54   H36   S    
C61   H38   S    
C62   H42   S    
C7    C11   S    
