data_str_m4_o22_o24_f0_acs.sym.30
_audit_creation_date              2012-12-11T15:08:46-0500
_audit_creation_method            fapswitch 2.2
_symmetry_space_group_name_H-M    P1
_symmetry_Int_Tables_number       1
_space_group_crystal_system       triclinic
_cell_length_a                    19.483704
_cell_length_b                    11.317578
_cell_length_c                    18.699386
_cell_angle_alpha                 90.000141
_cell_angle_beta                  90.286572
_cell_angle_gamma                 89.999968
_cell_volume                      4123.31898564

loop_
_atom_site_label
_atom_site_type_symbol
_atom_type_description
_atom_site_fract_x
_atom_site_fract_y
_atom_site_fract_z
_atom_type_partial_charge
C1    C     C_R   0.272604 0.043921 0.854075 0.522951
C2    C     C_3   0.689878 0.525928 0.956532 -0.245536
C3    C     C_R   0.226989 0.544274 0.353822 0.537192
C4    C     C_R   0.469358 0.822741 0.645832 0.541787
C5    C     C_R   0.530642 0.822741 0.354168 0.541787
C6    C     C_R   0.969358 0.322740 0.645832 0.541786
C7    C     C_R   0.030642 0.322741 0.354168 0.541786
C8    C     C_R   0.260566 0.639878 0.643853 0.540861
C9    C     C_R   0.739434 0.639879 0.356147 0.540863
C10   C     C_R   0.760566 0.139877 0.643854 0.540859
C11   C     C_R   0.239434 0.139879 0.356147 0.540862
C12   C     C_3   0.479697 0.913144 0.035625 -0.084099
C13   C     C_3   0.810121 0.025926 0.043468 -0.245534
C14   C     C_3   0.520301 0.913147 0.964377 -0.084099
C15   C     C_3   0.979699 0.413147 0.035624 -0.084099
C16   C     C_3   0.020304 0.413145 0.964376 -0.084099
C17   C     C_3   0.431848 0.815715 0.006139 -0.167941
C18   C     C_3   0.568153 0.815721 0.993860 -0.167942
C19   C     C_3   0.931848 0.315721 0.006139 -0.167941
C20   C     C_3   0.068153 0.315717 0.993861 -0.167942
C21   C     C_3   0.472375 0.817604 0.935879 0.050337
C22   C     C_3   0.527626 0.817603 0.064120 0.050336
C23   C     C_3   0.972375 0.317604 0.935879 0.050338
C24   C     C_3   0.189879 0.025928 0.956532 -0.245537
C25   C     C_3   0.027626 0.317604 0.064120 0.050335
C26   C     C_1   0.614319 0.102901 0.035795 0.209333
C27   C     C_1   0.385681 0.102901 0.964206 0.209330
C28   C     C_1   0.114319 0.602905 0.035794 0.209333
C29   C     C_1   0.885681 0.602900 0.964206 0.209333
C30   C     C_3   0.320546 0.549953 0.963152 -0.238241
C31   C     C_3   0.679452 0.549957 0.036847 -0.238240
C32   C     C_3   0.820546 0.049953 0.963152 -0.238240
C33   C     C_3   0.179453 0.049957 0.036848 -0.238242
C34   C     C_3   0.177086 0.530309 0.024841 -0.086325
C35   C     C_3   0.822913 0.530307 0.975158 -0.086324
C36   C     C_3   0.677087 0.030308 0.024842 -0.086324
C37   C     C_R   0.727396 0.043921 0.145925 0.522950
C38   C     C_3   0.322913 0.030308 0.975158 -0.086325
C39   C     C_3   0.245556 0.709699 0.056941 -0.254337
C40   C     C_3   0.754445 0.709700 0.943059 -0.254338
C41   C     C_3   0.745555 0.209699 0.056941 -0.254338
C42   C     C_3   0.254445 0.209700 0.943059 -0.254338
C43   C     C_3   0.240420 0.576718 0.070073 0.052103
C44   C     C_3   0.759580 0.576719 0.929927 0.052103
C45   C     C_3   0.740420 0.076718 0.070073 0.052104
C46   C     C_3   0.259580 0.076719 0.929927 0.052104
C47   C     C_3   0.255755 0.610459 0.932035 0.041943
C48   C     C_R   0.772603 0.543921 0.854075 0.522951
C49   C     C_3   0.744245 0.610460 0.067965 0.041943
C50   C     C_3   0.755755 0.110458 0.932035 0.041942
C51   C     C_3   0.244245 0.110460 0.067965 0.041943
C52   C     C_3   0.194248 0.528203 0.944347 -0.250537
C53   C     C_3   0.805750 0.528200 0.055652 -0.250539
C54   C     C_3   0.694249 0.028201 0.944347 -0.250537
C55   C     C_3   0.305751 0.028200 0.055652 -0.250539
C56   C     C_3   0.242795 0.727017 0.974666 -0.222303
C57   C     C_3   0.757207 0.727017 0.025334 -0.222302
C58   C     C_3   0.742794 0.227016 0.974666 -0.222303
C59   C     C_R   0.227396 0.543920 0.145924 0.522951
C60   C     C_3   0.257208 0.227017 0.025334 -0.222303
C61   C     C_3   0.497578 0.699070 0.459791 -0.236875
C62   C     C_3   0.502423 0.699070 0.540210 -0.236875
C63   C     C_3   0.997579 0.199069 0.459791 -0.236874
C64   C     C_3   0.002423 0.199069 0.540210 -0.236875
C65   C     C_R   0.444375 0.816768 0.862320 0.535923
C66   C     C_R   0.555626 0.816768 0.137680 0.535923
C67   C     C_R   0.944375 0.316768 0.862320 0.535924
C68   C     C_R   0.055626 0.316767 0.137680 0.535924
C69   C     C_3   0.567383 0.888053 0.473459 -0.227994
C70   C     C_3   0.519851 0.720055 0.964608 -0.112061
C71   C     C_3   0.432619 0.888052 0.526542 -0.227994
C72   C     C_3   0.067382 0.388053 0.473458 -0.227993
C73   C     C_3   0.932618 0.388051 0.526543 -0.227991
C74   C     C_3   0.445858 0.898714 0.445374 -0.256834
C75   C     C_3   0.554143 0.898713 0.554627 -0.256833
C76   C     C_3   0.945856 0.398711 0.445374 -0.256833
C77   C     C_3   0.054143 0.398714 0.554627 -0.256834
C78   C     C_3   0.509566 0.827159 0.430519 0.062248
C79   C     C_3   0.490435 0.827158 0.569481 0.062248
C80   C     C_3   0.009565 0.327158 0.430519 0.062247
C81   C     C_3   0.480152 0.720052 0.035390 -0.112060
C82   C     C_3   0.990435 0.327158 0.569481 0.062247
C83   C     C_3   0.181932 0.657454 0.458495 -0.237465
C84   C     C_3   0.818069 0.657451 0.541504 -0.237465
C85   C     C_3   0.681932 0.157454 0.458495 -0.237463
C86   C     C_3   0.318068 0.157453 0.541505 -0.237464
C87   C     C_3   0.180492 0.651601 0.538953 -0.237154
C88   C     C_3   0.819508 0.651600 0.461046 -0.237155
C89   C     C_3   0.680492 0.151600 0.538953 -0.237152
C90   C     C_3   0.319508 0.151600 0.461047 -0.237154
C91   C     C_3   0.242331 0.458958 0.472964 -0.228131
C92   C     C_3   0.019849 0.220053 0.964609 -0.112061
C93   C     C_3   0.757669 0.458956 0.527033 -0.228139
C94   C     C_3   0.742332 0.958959 0.472963 -0.228129
C95   C     C_3   0.257669 0.958957 0.527035 -0.228133
C96   C     C_3   0.308237 0.633997 0.443499 -0.257726
C97   C     C_3   0.691764 0.633994 0.556502 -0.257724
C98   C     C_3   0.808236 0.134000 0.443499 -0.257727
C99   C     C_3   0.191764 0.133996 0.556502 -0.257725
C100  C     C_3   0.240118 0.574914 0.429569 0.065856
C101  C     C_3   0.759883 0.574910 0.570430 0.065857
C102  C     C_3   0.740118 0.074915 0.429569 0.065856
C103  C     C_3   0.980150 0.220055 0.035391 -0.112061
C104  C     C_3   0.259883 0.074913 0.570431 0.065856
C105  C     C_3   0.251404 0.606086 0.567827 0.064835
C106  C     C_3   0.748596 0.606087 0.432172 0.064836
C107  C     C_3   0.751403 0.106085 0.567828 0.064834
C108  C     C_3   0.248596 0.106086 0.432173 0.064835
C109  C     C_3   0.255715 0.475017 0.553685 -0.258039
C110  C     C_3   0.744283 0.475017 0.446313 -0.258038
C111  C     C_3   0.755714 0.975016 0.553685 -0.258041
C112  C     C_3   0.244284 0.975017 0.446314 -0.258038
C113  C     C_R   0.262431 0.642274 0.854975 0.535265
C114  C     C_3   0.310120 0.525924 0.043467 -0.245535
C115  C     C_R   0.737569 0.642273 0.145025 0.535264
C116  C     C_R   0.762431 0.142273 0.854975 0.535264
C117  C     C_R   0.237569 0.142274 0.145025 0.535265
C118  C     C_3   0.310122 0.662003 0.524190 -0.230457
C119  C     C_3   0.689879 0.662004 0.475811 -0.230462
C120  C     C_3   0.810122 0.162003 0.524191 -0.230452
C121  C     C_3   0.189879 0.162004 0.475811 -0.230458
C122  C     C_R   0.273011 0.044274 0.646178 0.537192
C123  C     C_R   0.726989 0.044275 0.353822 0.537190
C124  C     C_R   0.773012 0.544272 0.646177 0.537195
Cr1   Cr    Cr6+3 0.229620 0.836040 0.749110 0.998031
Cr2   Cr    Cr6+3 0.613980 0.676590 0.250790 0.999389
Cr3   Cr    Cr6+3 0.886020 0.176590 0.749210 0.999389
Cr4   Cr    Cr6+3 0.113980 0.176590 0.250790 0.999389
Cr5   Cr    Cr6+3 0.770380 0.836040 0.250890 0.998031
Cr6   Cr    Cr6+3 0.729620 0.336040 0.749110 0.998031
Cr7   Cr    Cr6+3 0.270380 0.336040 0.250890 0.998032
Cr8   Cr    Cr6+3 0.387630 0.990680 0.750730 1.017230
Cr9   Cr    Cr6+3 0.612370 0.990680 0.249270 1.017231
Cr10  Cr    Cr6+3 0.887630 0.490680 0.750730 1.017231
Cr11  Cr    Cr6+3 0.112370 0.490680 0.249270 1.017230
Cr12  Cr    Cr6+3 0.386020 0.676590 0.749210 0.999389
H1    H     H_    0.377157 0.804674 0.015878 0.089250
H2    H     H_    0.706446 0.743563 0.918852 0.100940
H3    H     H_    0.220050 0.896993 0.549445 0.132921
H4    H     H_    0.307856 0.442819 0.568183 0.120854
H5    H     H_    0.692142 0.442820 0.431816 0.120856
H6    H     H_    0.807854 0.942817 0.568184 0.120852
H7    H     H_    0.192144 0.942819 0.431816 0.120854
H8    H     H_    0.313936 0.432067 0.054307 0.136560
H9    H     H_    0.686062 0.432071 0.945692 0.136562
H10   H     H_    0.813941 0.932070 0.054310 0.136561
H11   H     H_    0.186062 0.932072 0.945692 0.136561
H12   H     H_    0.353036 0.565996 0.074391 0.117915
H13   H     H_    0.793554 0.243562 0.081149 0.100939
H14   H     H_    0.646963 0.566000 0.925608 0.117911
H15   H     H_    0.853036 0.066003 0.074390 0.117911
H16   H     H_    0.146964 0.066000 0.925609 0.117913
H17   H     H_    0.366081 0.607563 0.955718 0.143067
H18   H     H_    0.633918 0.607571 0.044280 0.143065
H19   H     H_    0.866081 0.107563 0.955718 0.143067
H20   H     H_    0.133919 0.107568 0.044281 0.143067
H21   H     H_    0.330974 0.465622 0.934710 0.128860
H22   H     H_    0.669021 0.465627 0.065289 0.128862
H23   H     H_    0.830975 0.965621 0.934711 0.128860
H24   H     H_    0.206445 0.243563 0.918853 0.100941
H25   H     H_    0.169024 0.965626 0.065288 0.128861
H26   H     H_    0.663388 0.943596 0.044828 0.083680
H27   H     H_    0.336612 0.943596 0.955172 0.083681
H28   H     H_    0.163386 0.443597 0.044827 0.083681
H29   H     H_    0.836611 0.443595 0.955171 0.083680
H30   H     H_    0.707407 0.937838 0.927157 0.096212
H31   H     H_    0.292591 0.937838 0.072841 0.096214
H32   H     H_    0.207406 0.437840 0.927157 0.096212
H33   H     H_    0.792591 0.437837 0.072840 0.096213
H34   H     H_    0.278322 0.794992 0.957222 0.098333
H35   H     H_    0.721680 0.794994 0.042779 0.098336
H36   H     H_    0.778322 0.294990 0.957222 0.098334
H37   H     H_    0.221684 0.294998 0.042780 0.098335
H38   H     H_    0.189944 0.754831 0.961059 0.150679
H39   H     H_    0.810058 0.754828 0.038941 0.150681
H40   H     H_    0.689944 0.254829 0.961058 0.150680
H41   H     H_    0.622844 0.804683 0.984120 0.089250
H42   H     H_    0.310061 0.254824 0.038940 0.150681
H43   H     H_    0.149537 0.555627 0.910964 0.132887
H44   H     H_    0.850462 0.555620 0.089035 0.132885
H45   H     H_    0.649537 0.055625 0.910964 0.132887
H46   H     H_    0.350462 0.055621 0.089036 0.132885
H47   H     H_    0.532900 0.630086 0.440332 0.137409
H48   H     H_    0.467101 0.630086 0.559668 0.137409
H49   H     H_    0.032901 0.130086 0.440332 0.137409
H50   H     H_    0.967101 0.130086 0.559668 0.137409
H51   H     H_    0.446345 0.668813 0.442521 0.117004
H52   H     H_    0.877157 0.304684 0.015881 0.089251
H53   H     H_    0.553657 0.668813 0.557480 0.117004
H54   H     H_    0.946345 0.168812 0.442521 0.117004
H55   H     H_    0.053657 0.168813 0.557480 0.117004
H56   H     H_    0.608327 0.827955 0.466220 0.110349
H57   H     H_    0.391675 0.827955 0.533780 0.110350
H58   H     H_    0.108326 0.327956 0.466219 0.110350
H59   H     H_    0.891675 0.327954 0.533783 0.110349
H60   H     H_    0.598574 0.865564 0.586168 0.101741
H61   H     H_    0.401427 0.865565 0.413832 0.101741
H62   H     H_    0.098574 0.365564 0.586167 0.101741
H63   H     H_    0.122844 0.304675 0.984122 0.089250
H64   H     H_    0.901425 0.365558 0.413834 0.101741
H65   H     H_    0.464308 0.991632 0.067098 0.152107
H66   H     H_    0.535687 0.991638 0.932905 0.152112
H67   H     H_    0.964312 0.491637 0.067096 0.152111
H68   H     H_    0.035692 0.491634 0.932903 0.152107
H69   H     H_    0.455307 0.992242 0.430288 0.120555
H70   H     H_    0.544694 0.992241 0.569714 0.120555
H71   H     H_    0.955304 0.492239 0.430286 0.120554
H72   H     H_    0.044694 0.492241 0.569713 0.120555
H73   H     H_    0.420994 0.975473 0.548989 0.131009
H74   H     H_    0.203123 0.759111 0.082875 0.140297
H75   H     H_    0.579007 0.975474 0.451012 0.131008
H76   H     H_    0.920995 0.475473 0.548989 0.131008
H77   H     H_    0.079005 0.475475 0.451011 0.131008
H78   H     H_    0.129421 0.638356 0.439313 0.137174
H79   H     H_    0.870579 0.638354 0.560686 0.137172
H80   H     H_    0.629421 0.138355 0.439313 0.137173
H81   H     H_    0.370579 0.138355 0.560686 0.137173
H82   H     H_    0.192103 0.748821 0.440743 0.116447
H83   H     H_    0.807898 0.748819 0.559258 0.116447
H84   H     H_    0.692101 0.248822 0.440743 0.116446
H85   H     H_    0.796879 0.759111 0.917125 0.140297
H86   H     H_    0.307898 0.248821 0.559258 0.116447
H87   H     H_    0.163947 0.739243 0.558166 0.136632
H88   H     H_    0.836052 0.739243 0.441834 0.136631
H89   H     H_    0.663948 0.239243 0.558166 0.136632
H90   H     H_    0.336053 0.239243 0.441834 0.136631
H91   H     H_    0.139883 0.590608 0.556735 0.117326
H92   H     H_    0.860116 0.590607 0.443263 0.117327
H93   H     H_    0.639883 0.090608 0.556735 0.117326
H94   H     H_    0.360117 0.090608 0.443264 0.117326
H95   H     H_    0.691508 0.927982 0.466707 0.110778
H96   H     H_    0.703121 0.259110 0.082874 0.140298
H97   H     H_    0.308494 0.927984 0.533288 0.110778
H98   H     H_    0.191506 0.427984 0.466711 0.110778
H99   H     H_    0.808495 0.427983 0.533281 0.110779
H100  H     H_    0.717521 0.925597 0.585901 0.100949
H101  H     H_    0.282476 0.925598 0.414095 0.100949
H102  H     H_    0.217523 0.425598 0.585903 0.100949
H103  H     H_    0.782474 0.425598 0.414093 0.100949
H104  H     H_    0.350335 0.572315 0.429052 0.121507
H105  H     H_    0.649665 0.572312 0.570947 0.121508
H106  H     H_    0.850335 0.072321 0.429050 0.121505
H107  H     H_    0.296878 0.259111 0.917124 0.140297
H108  H     H_    0.149665 0.072314 0.570948 0.121507
H109  H     H_    0.313632 0.715622 0.410994 0.100665
H110  H     H_    0.686369 0.715617 0.589008 0.100665
H111  H     H_    0.813630 0.215627 0.410996 0.100665
H112  H     H_    0.186368 0.215620 0.589007 0.100665
H113  H     H_    0.535470 0.639235 0.935406 0.130583
H114  H     H_    0.464536 0.639229 0.064590 0.130584
H115  H     H_    0.035466 0.139231 0.935408 0.130584
H116  H     H_    0.964533 0.139234 0.064592 0.130584
H117  H     H_    0.299501 0.753310 0.529342 0.111169
H118  H     H_    0.293556 0.743561 0.081149 0.100941
H119  H     H_    0.700501 0.753310 0.470662 0.111171
H120  H     H_    0.799502 0.253309 0.529346 0.111168
H121  H     H_    0.200500 0.253310 0.470660 0.111170
H122  H     H_    0.360294 0.637841 0.546807 0.131490
H123  H     H_    0.639706 0.637845 0.453194 0.131489
H124  H     H_    0.860294 0.137837 0.546807 0.131489
H125  H     H_    0.139707 0.137842 0.453194 0.131489
H126  H     H_    0.279951 0.396993 0.450554 0.132922
H127  H     H_    0.720051 0.396990 0.549443 0.132921
H128  H     H_    0.779954 0.896997 0.450554 0.132922
N1    N     N_1   0.566155 0.160785 0.044726 -0.293144
N2    N     N_1   0.433846 0.160785 0.955275 -0.293147
N3    N     N_1   0.066155 0.660790 0.044726 -0.293146
N4    N     N_1   0.933845 0.660783 0.955274 -0.293145
O1    O     O_R   0.214130 0.708570 0.829890 -0.523779
O2    O     O_R   0.542830 0.717300 0.331620 -0.530853
O3    O     O_R   0.957170 0.217300 0.668380 -0.530853
O4    O     O_R   0.042830 0.217300 0.331620 -0.530853
O5    O     O_R   0.320870 0.624890 0.673130 -0.511650
O6    O     O_R   0.679130 0.624890 0.326870 -0.511650
O7    O     O_R   0.820870 0.124890 0.673130 -0.511650
O8    O     O_R   0.179130 0.124890 0.326870 -0.511650
O9    O     O_3   0.334430 0.834430 0.749680 -0.288968
O10   O     O_3   0.665570 0.834430 0.250320 -0.288968
O11   O     O_3   0.834430 0.334430 0.749680 -0.288968
O12   O     O_R   0.785870 0.708570 0.170110 -0.523778
O13   O     O_3   0.165570 0.334430 0.250320 -0.288968
O14   O     O_R   0.236050 0.959150 0.825270 -0.516308
O15   O     O_R   0.763950 0.959150 0.174730 -0.516309
O16   O     O_R   0.736050 0.459150 0.825270 -0.516308
O17   O     O_R   0.263950 0.459150 0.174730 -0.516309
O18   O     O_R   0.332100 0.076650 0.832310 -0.511740
O19   O     O_R   0.667900 0.076650 0.167690 -0.511740
O20   O     O_R   0.832100 0.576650 0.832310 -0.511740
O21   O     O_R   0.167900 0.576650 0.167690 -0.511740
O22   O     O_R   0.446500 0.918620 0.826240 -0.495291
O23   O     O_R   0.714130 0.208570 0.829890 -0.523779
O24   O     O_R   0.553500 0.918620 0.173760 -0.495290
O25   O     O_R   0.946500 0.418620 0.826240 -0.495290
O26   O     O_R   0.053500 0.418620 0.173760 -0.495292
O27   O     O_R   0.457310 0.715830 0.831280 -0.523008
O28   O     O_R   0.542690 0.715830 0.168720 -0.523008
O29   O     O_R   0.957310 0.215830 0.831280 -0.523009
O30   O     O_R   0.042690 0.215830 0.168720 -0.523008
O31   O     O_R   0.321000 0.623520 0.824130 -0.517132
O32   O     O_R   0.679000 0.623520 0.175870 -0.517131
O33   O     O_R   0.821000 0.123520 0.824130 -0.517131
O34   O     O_R   0.285870 0.208570 0.170110 -0.523779
O35   O     O_R   0.179000 0.123520 0.175870 -0.517131
O36   O     O_R   0.213990 0.710040 0.667000 -0.532442
O37   O     O_R   0.786010 0.710040 0.333000 -0.532442
O38   O     O_R   0.713990 0.210040 0.667000 -0.532442
O39   O     O_R   0.286010 0.210040 0.333000 -0.532442
O40   O     O_R   0.235920 0.960520 0.674260 -0.512887
O41   O     O_R   0.764080 0.960520 0.325740 -0.512887
O42   O     O_R   0.735920 0.460520 0.674260 -0.512887
O43   O     O_R   0.264080 0.460520 0.325740 -0.512886
O44   O     O_R   0.331960 0.078120 0.669410 -0.534500
O45   O     O_R   0.446360 0.919990 0.675230 -0.508880
O46   O     O_R   0.668040 0.078120 0.330590 -0.534500
O47   O     O_R   0.831960 0.578120 0.669410 -0.534500
O48   O     O_R   0.168040 0.578120 0.330590 -0.534499
O49   O     O_R   0.553640 0.919990 0.324770 -0.508879
O50   O     O_R   0.946360 0.419990 0.675230 -0.508880
O51   O     O_R   0.053640 0.419990 0.324770 -0.508879
O52   O     O_R   0.457170 0.717300 0.668380 -0.530853

loop_
_geom_bond_atom_site_label_1
_geom_bond_atom_site_label_2
_ccdc_geom_bond_type
C94   H128  S    
C8    O36   A    
C35   C53   S    
C107  C120  S    
Cr7   O34   S    
C83   C87   S    
C10   O7    A    
C48   O16   A    
C33   H20   S    
C5    O49   A    
Cr2   O10   S    
C91   H98   S    
C7    O51   A    
Cr10  O11   S    
C13   H10   S    
C14   C21   S    
Cr11  O26   S    
C72   H58   S    
C1    C46   S    
C41   H13   S    
C10   O38   A    
C94   C111  S    
Cr5   O15   S    
C73   H76   S    
C111  H6    S    
Cr1   O36   S    
Cr5   O37   S    
C3    C100  S    
C38   C55   S    
C18   H41   S    
C40   H2    S    
Cr10  O20   S    
C69   H75   S    
C91   C100  S    
C108  C121  S    
C93   C110  S    
C99   C121  S    
C69   C78   S    
C72   H77   S    
Cr9   O46   S    
C1    O18   A    
Cr2   O2    S    
Cr2   O28   S    
C13   H15   S    
C86   C90   S    
C93   C101  S    
Cr7   O17   S    
C83   H82   S    
Cr6   O38   S    
C98   C102  S    
Cr7   O43   S    
C17   C21   S    
C56   H38   S    
C87   H87   S    
C19   C23   S    
C19   H52   S    
C20   C92   S    
C30   C47   S    
C39   C56   S    
C66   O28   A    
C16   C20   S    
C123  O46   A    
C111  H100  S    
C93   H127  S    
Cr11  O21   S    
C70   H113  S    
C59   O21   A    
C49   C115  S    
C83   C100  S    
Cr4   O8    S    
C105  C118  S    
C37   C45   S    
C102  C123  S    
C96   H109  S    
C90   H90   S    
C84   C88   S    
Cr3   O7    S    
C15   H67   S    
C98   C120  S    
C47   C52   S    
C118  H122  S    
C29   C35   S    
C95   H3    S    
C40   H85   S    
C24   C46   S    
Cr1   O40   S    
Cr9   O49   S    
C13   C45   S    
C77   C82   S    
C49   C53   S    
C51   C55   S    
C98   H106  S    
C94   C102  S    
C29   N4    T    
C41   C45   S    
C17   H1    S    
C16   H68   S    
C75   C79   S    
C64   H50   S    
C44   C48   S    
C115  O12   A    
C2    H14   S    
C110  H5    S    
C13   C32   S    
Cr12  O5    S    
C86   C104  S    
C8    C105  S    
C37   O19   A    
C71   C79   S    
C59   O17   A    
C5    O2    A    
Cr1   O9    S    
C7    O4    A    
Cr12  O27   S    
C113  O1    A    
C41   C58   S    
C34   H28   S    
C15   C25   S    
C27   N2    T    
C104  C122  S    
C12   C22   S    
C49   C57   S    
C23   C67   S    
C99   H108  S    
C57   H39   S    
C2    C44   S    
C71   H73   S    
C117  O34   A    
C88   H88   S    
C77   H62   S    
C4    O52   A    
C43   C59   S    
C75   H60   S    
C6    O50   A    
Cr2   O6    S    
Cr3   O3    S    
C122  O40   A    
Cr4   O4    S    
C117  O35   A    
C63   C80   S    
C101  C124  S    
C11   O39   A    
Cr5   O41   S    
Cr4   O35   S    
C97   C119  S    
C124  O47   A    
C118  H117  S    
C87   C105  S    
C64   C82   S    
C54   H45   S    
Cr5   O10   S    
C38   H27   S    
C16   C23   S    
Cr7   O13   S    
C31   H18   S    
Cr6   O42   S    
Cr7   O39   S    
C56   H34   S    
C6    O3    A    
C18   C22   S    
C107  C111  S    
C42   H24   S    
C34   C43   S    
C76   C80   S    
C24   H11   S    
C4    O45   A    
Cr12  O31   S    
C63   H54   S    
C52   H43   S    
C90   C108  S    
C72   C80   S    
Cr11  O51   S    
C88   H92   S    
Cr12  O52   S    
C96   C100  S    
C51   C117  S    
C55   H46   S    
C61   C62   S    
C62   C79   S    
C38   C46   S    
C36   C54   S    
C62   H48   S    
C63   C64   S    
C40   C44   S    
C11   C108  S    
C23   C92   S    
C90   H94   S    
C51   C60   S    
Cr3   O11   S    
Cr10  O47   S    
C85   C102  S    
C121  H121  S    
C47   C56   S    
C74   H69   S    
C65   O22   A    
C30   H21   S    
C119  H123  S    
C106  C119  S    
C55   H31   S    
C81   H114  S    
C83   H78   S    
C109  H102  S    
C2    H9    S    
C15   C19   S    
C50   C54   S    
C28   N3    T    
C109  H4    S    
C112  H7    S    
C85   H84   S    
C31   C49   S    
C95   C112  S    
C43   C114  S    
C71   H57   S    
C20   C25   S    
C27   C38   S    
C60   H42   S    
C42   H107  S    
C61   H51   S    
Cr5   O12   S    
C42   C46   S    
C105  C109  S    
C24   H16   S    
C63   H49   S    
C12   C17   S    
C124  O42   A    
C37   O15   A    
C8    O5    A    
C84   H79   S    
C53   H33   S    
C32   H23   S    
C99   C104  S    
C28   C34   S    
C113  O31   A    
C67   O29   A    
C36   H26   S    
C60   H37   S    
C96   H104  S    
C25   C68   S    
C54   H30   S    
C69   H56   S    
C62   H53   S    
C50   C58   S    
C22   C81   S    
C85   H80   S    
C97   H110  S    
C85   C89   S    
Cr9   O10   S    
C108  C112  S    
C39   H74   S    
C115  O32   A    
C114  H8    S    
Cr8   O45   S    
C58   H36   S    
Cr3   O29   S    
C41   H96   S    
C89   C107  S    
C122  O44   A    
C123  O41   A    
C26   C36   S    
C87   H91   S    
C73   H59   S    
C73   C76   S    
Cr8   O22   S    
C73   C82   S    
C64   H55   S    
C30   C114  S    
C47   C113  S    
C40   C57   S    
C21   C65   S    
C3    O43   A    
C89   H89   S    
C119  H119  S    
C71   C74   S    
C33   C51   S    
C34   C52   S    
C24   C33   S    
C114  H12   S    
C120  H124  S    
C48   O20   A    
C68   O30   A    
C116  O33   A    
C69   C75   S    
C17   C81   S    
C31   H22   S    
C97   H105  S    
Cr11  O48   S    
C9    O37   A    
C112  H101  S    
C74   C78   S    
C5    C78   S    
C7    C80   S    
C18   C70   S    
C6    C82   S    
C14   C18   S    
C33   H25   S    
Cr11  O13   S    
Cr10  O50   S    
C39   H118  S    
C93   H99   S    
Cr8   O9    S    
C103  H116  S    
C96   C118  S    
C1    O14   A    
C75   H70   S    
Cr2   O32   S    
C15   C16   S    
C14   H66   S    
Cr6   O11   S    
C70   C81   S    
C65   O27   A    
C22   C66   S    
Cr6   O16   S    
C92   C103  S    
C121  H125  S    
C19   C103  S    
C30   H17   S    
Cr8   O18   S    
Cr9   O19   S    
C68   O26   A    
C76   H71   S    
C26   N1    T    
C66   O24   A    
C84   C101  S    
C10   C107  S    
Cr4   O13   S    
C94   H95   S    
C11   O8    A    
C61   H47   S    
Cr9   O24   S    
C9    O6    A    
C4    C79   S    
C76   H64   S    
C77   H72   S    
C42   C60   S    
C110  H103  S    
C25   C103  S    
C39   C43   S    
C9    C106  S    
Cr1   O1    S    
C2    C31   S    
C86   H81   S    
Cr6   O23   S    
C120  H120  S    
C20   H63   S    
C72   C77   S    
C84   H83   S    
C32   H19   S    
C88   C106  S    
C74   H61   S    
C61   C78   S    
C67   O25   A    
C36   C45   S    
C12   H65   S    
Cr8   O44   S    
C35   C44   S    
C32   C50   S    
C91   H126  S    
C12   C14   S    
C53   H44   S    
C95   C104  S    
C106  C110  S    
C92   H115  S    
C58   H40   S    
Cr3   O33   S    
Cr4   O30   S    
C86   H86   S    
C116  O23   A    
C21   C70   S    
C3    O48   A    
C91   C109  S    
Cr12  O9    S    
Cr10  O25   S    
C98   H111  S    
C52   H32   S    
C35   H29   S    
C50   C116  S    
Cr1   O14   S    
C95   H97   S    
C89   H93   S    
C99   H112  S    
C97   C101  S    
C57   H35   S    
