data_str_m3_o10_o17_f0_pcu.sym.169
_audit_creation_date              2013-03-05T15:40:48-0500
_audit_creation_method            fapswitch 2.2
_symmetry_space_group_name_H-M    P1
_symmetry_Int_Tables_number       1
_space_group_crystal_system       triclinic
_cell_length_a                    7.813047
_cell_length_b                    8.566103
_cell_length_c                    14.955681
_cell_angle_alpha                 91.340349
_cell_angle_beta                  86.344045
_cell_angle_gamma                 93.310875
_cell_volume                      997.044891199

loop_
_atom_site_label
_atom_site_type_symbol
_atom_site_description
_atom_site_fract_x
_atom_site_fract_y
_atom_site_fract_z
_atom_type_partial_charge
O1    O     O_R   0.389250 0.738570 0.505970 -0.615460
O2    O     O_R   0.610750 0.261430 0.494030 -0.615471
O3    O     O_R   0.678390 0.711620 0.490370 -0.606458
O4    O     O_R   0.321610 0.288380 0.509630 -0.606383
C1    C     C_R   0.545332 0.794401 0.497719 0.939640
C2    C     C_R   0.454668 0.205599 0.502281 0.939669
O5    O     O_R   0.355420 0.513510 0.639950 -0.593797
O6    O     O_R   0.644580 0.486490 0.360050 -0.593798
O7    O     O_R   0.644560 0.486560 0.624350 -0.592124
O8    O     O_R   0.355440 0.513440 0.375650 -0.592120
C3    C     C_R   0.502155 0.498707 0.673003 0.876626
C4    C     C_R   0.497845 0.501293 0.326997 0.876645
Zn1   Zn    Zn3+2 0.306940 0.517990 0.510420 1.096851
Zn2   Zn    Zn3+2 0.693060 0.482010 0.489580 1.096815
C5    C     C_R   0.347733 0.452823 0.189524 -0.203797
C6    C     C_R   0.652269 0.547175 0.810476 -0.203793
C7    C     C_R   0.495424 0.505470 0.231296 -0.074412
C8    C     C_R   0.504576 0.494531 0.768704 -0.074398
C9    C     C_R   0.644538 0.557659 0.181590 -0.225375
C10   C     C_R   0.355460 0.442346 0.818410 -0.225365
C11   C     C_R   0.647724 0.555618 0.089087 0.102120
C12   C     C_R   0.352275 0.444386 0.910912 0.102120
C13   C     C_R   0.498848 0.501799 0.046517 0.068863
C14   C     C_R   0.501152 0.498204 0.953483 0.068860
C15   C     C_R   0.347886 0.451001 0.097016 0.094240
C16   C     C_R   0.652115 0.549000 0.902983 0.094244
C17   C     C_R   0.797208 0.605511 0.038669 -0.210425
C18   C     C_R   0.202792 0.394493 0.961330 -0.210422
C19   C     C_R   0.799379 0.602277 0.945690 -0.202421
C20   C     C_R   0.200622 0.397724 0.054309 -0.202421
H1    H     H_    0.915743 0.641167 0.907259 0.174027
H2    H     H_    0.084258 0.358834 0.092741 0.174023
C21   C     C_2   0.569259 0.957806 0.496369 -0.340334
C22   C     C_2   0.430741 0.042194 0.503631 -0.340295
N1    N     N_2   0.950330 0.457950 0.475660 0.048924
N2    N     N_2   0.049670 0.542050 0.524340 0.048905
H3    H     H_    0.234807 0.409213 0.228621 0.227336
H4    H     H_    0.765197 0.590781 0.771378 0.227320
H5    H     H_    0.758146 0.599545 0.214927 0.201654
H6    H     H_    0.241851 0.400465 0.785073 0.201641
H7    H     H_    0.912025 0.646624 0.071099 0.169329
H8    H     H_    0.087975 0.353381 0.928900 0.169329
H9    H     H_    0.700370 0.008143 0.489388 0.206150
H10   H     H_    0.299629 0.991857 0.510611 0.206155
N3    N     N_R   0.016737 0.434788 0.388833 0.299698
O9    O     O_R   0.013131 0.546829 0.331809 -0.423642
O10   O     O_R   0.035514 0.292515 0.359064 -0.417282
N4    N     N_R   0.983287 0.565164 0.611176 0.299691
O11   O     O_R   0.986763 0.453033 0.668153 -0.423589
O12   O     O_R   0.964732 0.707430 0.641009 -0.417296

loop_
_geom_bond_atom_site_label_1
_geom_bond_atom_site_label_2
_geom_bond_distance
_ccdc_geom_bond_type
C4    C7    1.433921 S    
C20   H2    1.084088 S    
C13   C14   1.389998 A    
C3    C8    1.433916 S    
C17   C19   1.389230 A    
C17   H7    1.083978 S    
N1    N2    1.278428 D    
O6    C4    1.291040 A    
N4    O12   1.300748 A    
C21   C22   1.333149 D    
C11   C17   1.400136 A    
O2    Zn2   1.961714 S    
C19   H1    1.084087 S    
C12   C18   1.400135 A    
N3    O9    1.301432 A    
O5    C3    1.291039 A    
O7    C3    1.297989 A    
C14   C16   1.411882 A    
O2    C2    1.283463 A    
O3    Zn2   1.976513 S    
C9    H5    1.084648 S    
Zn1   N2    2.029446 S    
O1    C1    1.283462 A    
O8    C4    1.297991 A    
C18   C20   1.389227 A    
N4    O11   1.301426 A    
C9    C11   1.381798 A    
C10   C12   1.381797 A    
N2    N4    1.381574 S    
C8    C10   1.398113 A    
C1    C21   1.401878 S    
C11   C13   1.410544 A    
C6    C16   1.383163 A    
C10   H6    1.084652 S    
C12   C14   1.410544 A    
C5    C15   1.383161 A    
O4    C2    1.289417 A    
O1    Zn1   1.961712 S    
N1    N3    1.381569 S    
O5    Zn1   1.999115 S    
C13   C15   1.411881 A    
C22   H10   1.087947 S    
C16   C19   1.399818 A    
C6    C8    1.394219 A    
N3    O10   1.300761 A    
C18   H8    1.083979 S    
C15   C20   1.399818 A    
C5    C7    1.394216 A    
O7    Zn2   2.026891 S    
C5    H3    1.079933 S    
O6    Zn2   1.999116 S    
C7    C9    1.398112 A    
Zn2   N1    2.029445 S    
C2    C22   1.401878 S    
O4    Zn1   1.976514 S    
C6    H4    1.079937 S    
O3    C1    1.289419 A    
O8    Zn1   2.026893 S    
C21   H9    1.087948 S    
