data_str_m3_o1_o14_f0_pcu.sym.116
_audit_creation_date              2012-12-10T18:45:03-0500
_audit_creation_method            fapswitch 2.2
_symmetry_space_group_name_H-M    P1
_symmetry_Int_Tables_number       1
_space_group_crystal_system       triclinic
_cell_length_a                    10.715111
_cell_length_b                    9.845745
_cell_length_c                    10.638972
_cell_angle_alpha                 90.12569
_cell_angle_beta                  90.21563
_cell_angle_gamma                 90.018756
_cell_volume                      1122.38222128

loop_
_atom_site_label
_atom_site_type_symbol
_atom_type_description
_atom_site_fract_x
_atom_site_fract_y
_atom_site_fract_z
_atom_type_partial_charge
C1    C     C_R   0.259907 0.499914 0.499956 0.843019
C2    C     C_R   0.740105 0.499948 0.500444 0.877097
C3    C     C_R   0.936286 0.622321 0.518458 -0.128420
C4    C     C_R   0.064063 0.622277 0.517734 -0.090373
C5    C     C_R   0.581749 0.072137 0.573894 -0.061824
C6    C     C_R   0.418185 0.071715 0.426154 -0.055326
C7    C     C_R   0.581750 0.928270 0.573895 -0.053789
C8    C     C_R   0.418175 0.927836 0.426149 -0.043446
C9    C     C_R   0.495603 0.499883 0.260406 0.874886
C10   C     C_R   0.496020 0.500204 0.739601 0.867182
C11   C     C_R   0.289357 0.631348 0.130218 -0.270581
C12   C     C_R   0.290993 0.633971 0.868704 -0.253562
C13   C     C_R   0.193645 0.699488 0.065626 -0.040413
C14   C     C_R   0.193647 0.699040 0.932840 -0.032011
C15   C     C_R   0.389108 0.568842 0.934029 0.088087
C16   C     C_R   0.388265 0.567511 0.065426 0.085389
C17   C     C_R   0.486180 0.499196 0.128129 -0.084305
C18   C     C_R   0.486930 0.500270 0.871840 -0.081981
C19   C     C_R   0.578538 0.428148 0.064361 -0.185488
C20   C     C_R   0.578797 0.428506 0.936058 -0.192941
C21   C     C_R   0.063809 0.377199 0.483872 -0.168639
C22   C     C_R   0.936018 0.377230 0.484127 -0.184386
C23   C     C_R   0.872590 0.499837 0.501188 -0.035216
C24   C     C_R   0.127472 0.499789 0.500525 -0.036255
H1    H     H_    0.652193 0.375021 0.114289 0.160062
H2    H     H_    0.652477 0.375368 0.886513 0.155692
H3    H     H_    0.286049 0.629792 0.231771 0.174918
H4    H     H_    0.286570 0.630907 0.767162 0.171657
H5    H     H_    0.112265 0.281803 0.469839 0.164742
H6    H     H_    0.887361 0.281840 0.470227 0.162832
H7    H     H_    0.887882 0.717777 0.532315 0.158382
H8    H     H_    0.112794 0.717800 0.529956 0.197164
H9    H     H_    0.647115 0.126782 0.632997 0.131075
H10   H     H_    0.352775 0.126025 0.367092 0.133234
H11   H     H_    0.647130 0.873943 0.632983 0.128637
H12   H     H_    0.352768 0.873166 0.367068 0.133786
N1    N     N_R   0.500000 0.857200 0.500000 -0.083752
N2    N     N_R   0.500000 0.142810 0.500000 -0.084967
O1    O     O_R   0.316770 0.614620 0.499990 -0.633643
O2    O     O_R   0.683230 0.614620 0.500010 -0.622996
O3    O     O_R   0.316800 0.385290 0.500000 -0.623060
O4    O     O_R   0.683200 0.385290 0.500000 -0.630973
O5    O     O_R   0.500010 0.614690 0.316770 -0.616007
O6    O     O_R   0.499990 0.614690 0.683230 -0.616983
O7    O     O_R   0.500040 0.385360 0.316770 -0.616563
O8    O     O_R   0.499960 0.385360 0.683230 -0.611759
Zn1   Zn    Zn3+2 0.500000 0.653120 0.500000 0.964232
Zn2   Zn    Zn3+2 0.500000 0.346880 0.500000 0.958763
C25   C     C_2   0.098761 0.774668 0.139734 0.942060
O9    O     O_2   0.065792 0.731520 0.242038 -0.650101
O10   O     O_R   0.050021 0.897188 0.094986 -0.781955
H13   H     H_    0.987187 0.938966 0.154677 0.345030
C26   C     C_2   0.090288 0.758336 0.857994 0.952453
O11   O     O_2   0.113295 0.821468 0.761991 -0.653482
O12   O     O_R   0.966491 0.738990 0.895072 -0.783443
H14   H     H_    0.904631 0.782767 0.835266 0.338262

loop_
_geom_bond_atom_site_label_1
_geom_bond_atom_site_label_2
_ccdc_geom_bond_type
C10   O8    A    
C15   C18   A    
O12   H14   S    
C6    N2    A    
C9    O7    A    
N1    Zn1   S    
O6    Zn1   S    
C11   C16   A    
C3    C23   A    
C19   C20   A    
C12   C15   A    
C11   H3    S    
C6    H10   S    
C21   C22   A    
C7    N1    A    
O4    Zn2   S    
C26   O11   D    
C3    H7    S    
C11   C13   A    
C4    H8    S    
C21   H5    S    
C2    O4    A    
C13   C25   S    
C1    O3    A    
C17   C19   A    
O3    Zn2   S    
C10   C18   S    
N2    Zn2   S    
C18   C20   A    
C26   O12   S    
C4    C24   A    
O8    Zn2   S    
C21   C24   A    
C9    O5    A    
C8    N1    A    
C1    O1    A    
C19   H1    S    
C10   O6    A    
C15   C16   A    
C2    O2    A    
C7    H11   S    
C14   C26   S    
C5    N2    A    
C12   H4    S    
C1    C24   S    
O1    Zn1   S    
C25   O9    D    
C8    H12   S    
O7    Zn2   S    
C9    C17   S    
C2    C23   S    
C5    C7    A    
C22   C23   A    
C6    C8    A    
C22   H6    S    
C25   O10   S    
C13   C14   A    
O2    Zn1   S    
O5    Zn1   S    
C3    C4    A    
O10   H13   S    
C12   C14   A    
C16   C17   A    
C20   H2    S    
C5    H9    S    
