data_str_m3_o14_o18_f0_pcu.sym.38
_audit_creation_date              2012-12-10T17:44:36-0500
_audit_creation_method            fapswitch 2.2
_symmetry_space_group_name_H-M    P1
_symmetry_Int_Tables_number       1
_space_group_crystal_system       triclinic
_cell_length_a                    9.927274
_cell_length_b                    10.620313
_cell_length_c                    15.390155
_cell_angle_alpha                 91.452746
_cell_angle_beta                  67.595393
_cell_angle_gamma                 87.918985
_cell_volume                      1497.77587132

loop_
_atom_site_label
_atom_site_type_symbol
_atom_type_description
_atom_site_fract_x
_atom_site_fract_y
_atom_site_fract_z
_atom_type_partial_charge
Br1   Br    Br    0.748219 0.091456 0.106419 -0.452005
Br2   Br    Br    0.779751 0.228841 0.294875 -0.493831
Br3   Br    Br    0.351295 0.229945 0.185897 -0.518571
C1    C     C_R   0.496022 0.739573 0.502127 0.833617
C2    C     C_R   0.749215 0.473304 0.025223 0.176713
C3    C     C_R   0.606185 0.437712 0.079792 0.145144
C4    C     C_R   0.408679 0.498786 0.676294 0.835549
C5    C     C_R   0.844497 0.506399 0.069011 -0.198062
C6    C     C_R   0.795572 0.512725 0.166836 -0.132120
C7    C     C_R   0.556434 0.455354 0.177080 -0.188489
C8    C     C_R   0.551050 0.854415 0.325499 -0.241121
C9    C     C_R   0.604431 0.908253 0.238204 -0.206676
C10   C     C_R   0.654408 0.029766 0.230400 0.374326
C11   C     C_R   0.642270 0.100807 0.311754 0.179231
C12   C     C_R   0.434791 0.437271 0.904919 0.097617
C13   C     C_R   0.564470 0.053983 0.402245 -0.021816
C14   C     C_R   0.534147 0.925862 0.407911 0.081982
C15   C     C_R   0.492708 0.871652 0.496154 -0.034113
C16   C     C_R   0.507791 0.260211 0.491969 0.925489
C17   C     C_R   0.461803 0.942777 0.578977 -0.225218
C18   C     C_R   0.469431 0.071172 0.575281 -0.177027
C19   C     C_R   0.519238 0.126515 0.488219 -0.058152
C20   C     C_R   0.782033 0.666667 0.625251 -0.162071
C21   C     C_R   0.813645 0.745701 0.687775 -0.197022
C22   C     C_R   0.952998 0.743421 0.688062 -0.180315
C23   C     C_R   0.302544 0.378760 0.953100 0.103269
C24   C     C_R   0.061851 0.662449 0.625514 -0.160523
C25   C     C_R   0.033401 0.580553 0.561880 0.156338
C26   C     C_R   0.888924 0.581439 0.561730 0.177171
C27   C     C_R   0.966705 0.422591 0.440803 -0.094022
C28   C     C_R   0.591346 0.500352 0.323679 0.892851
C29   C     C_R   0.109653 0.422714 0.440740 -0.089751
C30   C     C_R   0.355592 0.476761 0.776804 -0.055232
C31   C     C_R   0.649752 0.490560 0.221022 -0.058768
C32   C     C_R   0.198282 0.369513 0.912213 -0.188238
C33   C     C_R   0.226139 0.416095 0.823231 -0.211619
C34   C     C_R   0.544916 0.438061 0.942023 0.025445
C35   C     C_R   0.452773 0.494699 0.821043 -0.230049
C36   C     C_R   0.510422 0.402641 0.035695 -0.004372
C37   C     C_R   0.381556 0.335650 0.080630 0.245287
C38   C     C_R   0.279262 0.325610 0.039186 -0.243641
C39   C     C_R   0.689553 0.470078 0.887757 -0.188666
C40   C     C_R   0.791681 0.482642 0.928500 -0.223181
H1    H     H_    0.182107 0.274009 0.073782 0.208782
H2    H     H_    0.441846 0.449288 0.219079 0.186920
H3    H     H_    0.977263 0.805320 0.736610 0.161413
H4    H     H_    0.167157 0.666358 0.628516 0.199767
H5    H     H_    0.194288 0.359386 0.392358 0.190187
H6    H     H_    0.869603 0.539532 0.199896 0.169530
H7    H     H_    0.900924 0.508398 0.885291 0.146884
H8    H     H_    0.098327 0.321821 0.947276 0.172377
H9    H     H_    0.150356 0.399889 0.789300 0.161199
H10   H     H_    0.545500 0.550744 0.786891 0.143501
H11   H     H_    0.727575 0.482526 0.812933 0.157738
H12   H     H_    0.954669 0.531906 0.027872 0.148810
H13   H     H_    0.429568 0.898829 0.646318 0.129773
H14   H     H_    0.521705 0.757285 0.328009 0.158634
H15   H     H_    0.615183 0.852455 0.175833 0.182420
H16   H     H_    0.437414 0.127757 0.640333 0.145702
H17   H     H_    0.944503 0.359289 0.392424 0.200126
H18   H     H_    0.672802 0.676054 0.629194 0.195128
H19   H     H_    0.729304 0.809528 0.736122 0.161133
N1    N     N_R   0.856800 0.501200 0.500850 -0.121924
N2    N     N_R   0.142390 0.501280 0.500880 -0.125674
O1    O     O_R   0.385310 0.683220 0.500000 -0.632538
O2    O     O_R   0.614640 0.683250 0.500010 -0.622749
O3    O     O_R   0.319840 0.499980 0.632240 -0.634278
O4    O     O_R   0.549160 0.500000 0.632250 -0.630662
O5    O     O_R   0.385360 0.316750 0.499990 -0.604548
O6    O     O_R   0.614690 0.316780 0.500000 -0.578048
O7    O     O_R   0.450840 0.500000 0.367750 -0.619002
O8    O     O_R   0.680160 0.500020 0.367760 -0.580288
Zn1   Zn    Zn3+2 0.346880 0.499980 0.499990 0.946147
Zn2   Zn    Zn3+2 0.653120 0.500020 0.500010 0.968182

loop_
_geom_bond_atom_site_label_1
_geom_bond_atom_site_label_2
_ccdc_geom_bond_type
C27   C29   A    
C26   N1    A    
C4    C30   S    
C32   C33   A    
C17   H13   S    
C20   C26   A    
C25   C26   A    
C18   H16   S    
C2    C3    A    
O4    Zn2   S    
O2    Zn2   S    
C30   C33   A    
O1    Zn1   S    
C34   C39   A    
C12   C34   A    
C4    O4    A    
C8    C14   A    
C13   C14   A    
C27   H17   S    
O6    Zn2   S    
C21   H19   S    
N2    Zn1   S    
O5    Zn1   S    
O3    Zn1   S    
C10   C11   A    
C33   H9    S    
C9    H15   S    
C28   O7    A    
C2    C40   A    
C18   C19   A    
C29   H5    S    
C5    H12   S    
C16   C19   S    
C6    H6    S    
C21   C22   A    
C29   N2    A    
O8    Zn2   S    
C36   C37   A    
O7    Zn1   S    
C5    C6    A    
C12   C23   A    
C12   C35   A    
C20   C21   A    
C7    H2    S    
C14   C15   A    
C28   C31   S    
C7    C31   A    
C9    C10   A    
C25   N2    A    
C28   O8    A    
Br3   C37   S    
C32   H8    S    
C6    C31   A    
C38   H1    S    
C11   C13   A    
C16   O5    A    
Br1   C10   S    
C39   C40   A    
C24   H4    S    
C37   C38   A    
C13   C19   A    
C3    C7    A    
C2    C5    A    
C8    C9    A    
C40   H7    S    
N1    Zn2   S    
C22   C24   A    
C30   C35   A    
C1    C15   S    
C34   C36   A    
C39   H11   S    
C1    O2    A    
C1    O1    A    
C35   H10   S    
C27   N1    A    
C15   C17   A    
Br2   C11   S    
C4    O3    A    
C23   C32   A    
C20   H18   S    
C17   C18   A    
C24   C25   A    
C3    C36   A    
C16   O6    A    
C8    H14   S    
C22   H3    S    
C23   C38   A    
