data_str_m12_o9_o12_f0_bcu.sym.105
_audit_creation_date              2012-12-11T17:41:17-0500
_audit_creation_method            fapswitch 2.2
_symmetry_space_group_name_H-M    P1
_symmetry_Int_Tables_number       1
_space_group_crystal_system       triclinic
_cell_length_a                    15.497695
_cell_length_b                    14.875495
_cell_length_c                    15.14463
_cell_angle_alpha                 109.693724
_cell_angle_beta                  121.488274
_cell_angle_gamma                 59.265901
_cell_volume                      2547.38715135

loop_
_atom_site_label
_atom_site_type_symbol
_atom_type_description
_atom_site_fract_x
_atom_site_fract_y
_atom_site_fract_z
_atom_type_partial_charge
C1    C     C_R   0.801484 0.939904 0.774250 -0.129179
C2    C     C_R   0.326161 0.393847 0.220027 -0.117283
C3    C     C_R   0.581799 0.785178 0.891493 -0.149732
C4    C     C_R   0.399793 0.302208 0.187244 -0.125958
C5    C     C_R   0.639637 0.848914 0.951740 0.143499
C6    C     C_R   0.360984 0.253341 0.085769 0.130960
C7    C     C_R   0.755961 0.804317 0.989454 -0.170233
C8    C     C_R   0.247637 0.299397 0.017061 -0.172837
C9    C     C_R   0.813222 0.697560 0.964639 -0.121750
C10   C     C_R   0.174414 0.391668 0.049938 -0.113243
C11   C     C_R   0.755171 0.634257 0.905295 -0.103622
C12   C     C_R   0.242352 0.008156 0.209617 -0.112076
C13   C     C_R   0.213564 0.438646 0.151431 -0.103299
C14   C     C_R   0.581194 0.972415 0.081912 -0.183361
C15   C     C_R   0.439736 0.139744 0.958439 -0.215353
C16   C     C_R   0.197057 0.272263 0.436797 -0.133317
C17   C     C_R   0.757160 0.709346 0.509793 -0.110139
C18   C     C_R   0.508916 0.066484 0.112770 0.102603
C19   C     C_R   0.509018 0.042881 0.926192 0.078893
C20   C     C_R   0.437776 0.152528 0.052700 -0.010723
C21   C     C_R   0.579951 0.958174 0.987871 -0.028598
C22   C     C_2   0.017657 0.342395 0.453718 -0.218060
C23   C     C_R   0.133485 0.270708 0.474260 0.110823
C24   C     C_2   0.849507 0.602213 0.387115 -0.212755
C25   C     C_2   0.958468 0.415579 0.387558 -0.101733
C26   C     C_2   0.865025 0.509515 0.399617 -0.110029
C27   C     C_2   0.981652 0.957595 0.847726 -0.224100
C28   C     C_2   0.148688 0.883580 0.102133 -0.216860
C29   C     C_R   0.091506 0.798631 0.463226 -0.110104
C30   C     C_R   0.909491 0.278565 0.803369 -0.121955
C31   C     C_R   0.201397 0.736799 0.526511 -0.167465
C32   C     C_R   0.808702 0.343944 0.731552 -0.189575
C33   C     C_R   0.278506 0.672757 0.484278 0.110758
C34   C     C_R   0.788619 0.699891 0.435116 0.138807
C35   C     C_R   0.707328 0.370477 0.731282 0.108338
C36   C     C_R   0.243592 0.669117 0.377302 -0.167363
C37   C     C_R   0.709148 0.328834 0.803314 -0.149684
C38   C     C_R   0.133608 0.731330 0.314235 -0.141359
C39   C     C_R   0.810205 0.263116 0.874677 -0.093714
C40   C     C_R   0.593886 0.230468 0.560362 -0.177278
C41   C     C_R   0.405253 0.782796 0.507173 -0.167177
C42   C     C_R   0.057662 0.796173 0.357186 -0.098016
C43   C     C_R   0.910300 0.238724 0.875239 -0.101056
C44   C     C_R   0.399160 0.514112 0.571394 -0.245343
C45   C     C_R   0.502257 0.324030 0.558920 0.073485
C46   C     C_R   0.593784 0.534250 0.642747 -0.267157
C47   C     C_R   0.501561 0.428086 0.607100 0.053746
C48   C     C_R   0.491879 0.610092 0.581631 0.068883
C49   C     C_R   0.599871 0.443711 0.658374 0.030905
C50   C     C_R   0.391982 0.601783 0.550047 0.018999
C51   C     C_2   0.040188 0.887127 0.916802 -0.109234
C52   C     C_2   0.135257 0.896258 0.011681 -0.110722
C53   C     C_R   0.409282 0.041180 0.732541 0.531064
C54   C     C_R   0.592610 0.012564 0.285414 0.493400
C55   C     C_R   0.408769 0.304473 0.486792 -0.117520
C56   C     C_R   0.494748 0.693397 0.552616 0.063087
C57   C     C_R   0.589301 0.705410 0.578875 -0.121942
C58   C     C_R   0.594722 0.972869 0.805521 -0.195918
C59   C     C_R   0.408525 0.083290 0.207996 -0.231428
C60   C     C_R   0.195735 0.182128 0.526554 -0.074839
C61   C     C_R   0.757583 0.800275 0.418112 -0.163843
C62   C     C_R   0.803815 0.030893 0.685895 -0.144081
C63   C     C_R   0.241585 0.915691 0.299587 -0.155158
C64   C     C_R   0.865464 0.978804 0.774459 0.157146
C65   C     C_R   0.210421 0.932176 0.199978 0.143556
C66   C     C_3   0.281203 0.010767 0.735410 0.145920
C67   C     C_R   0.503280 0.028040 0.826069 -0.096993
C68   C     C_3   0.156048 0.050809 0.697946 -0.249515
C69   C     C_3   0.130475 0.986488 0.733623 -1.047507
C70   C     C_3   0.723939 0.076088 0.398645 0.181883
C71   C     C_3   0.820084 0.088026 0.406706 -0.256396
C72   C     C_3   0.849091 0.171318 0.494169 -1.065493
C73   C     C_R   0.502037 0.061630 0.200719 -0.080034
C74   C     C_R   0.639732 0.677970 0.869901 -0.102442
H1    H     H_    0.828359 0.883552 0.823190 0.084162
H2    H     H_    0.486848 0.268868 0.241268 0.105967
H3    H     H_    0.801983 0.852047 0.038520 0.108649
H4    H     H_    0.215516 0.262805 0.938839 0.116662
H5    H     H_    0.902788 0.663464 0.993265 0.102889
H6    H     H_    0.087085 0.426255 0.996968 0.107456
H7    H     H_    0.631625 0.905088 0.126887 0.148611
H8    H     H_    0.386210 0.203801 0.909243 0.154229
H9    H     H_    0.823336 0.504870 0.436362 0.128260
H10   H     H_    0.989971 0.416450 0.338685 0.127007
H11   H     H_    0.892325 0.605917 0.350866 0.135762
H12   H     H_    0.228309 0.042449 0.148357 0.088033
H13   H     H_    0.985354 0.343005 0.502807 0.131809
H14   H     H_    0.972440 0.843834 0.308140 0.115351
H15   H     H_    0.988538 0.188967 0.931411 0.100014
H16   H     H_    0.169064 0.321529 0.380335 0.090097
H17   H     H_    0.770956 0.647095 0.543386 0.086777
H18   H     H_    0.032487 0.847475 0.496356 0.119547
H19   H     H_    0.987072 0.259194 0.803636 0.111630
H20   H     H_    0.226427 0.737619 0.608105 0.112197
H21   H     H_    0.809959 0.373261 0.675978 0.118760
H22   H     H_    0.301647 0.618903 0.343262 0.116815
H23   H     H_    0.103015 0.848146 0.103469 0.126235
H24   H     H_    0.632462 0.348127 0.804952 0.116126
H25   H     H_    0.107181 0.729021 0.232028 0.105052
H26   H     H_    0.810975 0.231624 0.930049 0.115662
H27   H     H_    0.322579 0.507576 0.544447 0.131056
H28   H     H_    0.669713 0.544451 0.678816 0.125451
H29   H     H_    0.680474 0.215570 0.602791 0.130631
H30   H     H_    0.321093 0.814307 0.496546 0.122897
H31   H     H_    0.322587 0.358890 0.462292 0.095723
H32   H     H_    0.674499 0.659781 0.628892 0.087471
H33   H     H_    0.681186 0.946399 0.860680 0.136151
H34   H     H_    0.015342 0.008436 0.852538 0.140375
H35   H     H_    0.323026 0.129587 0.158590 0.138904
H36   H     H_    0.162712 0.148641 0.548266 0.135629
H37   H     H_    0.770715 0.820475 0.365368 0.152143
H38   H     H_    0.835843 0.057680 0.656063 0.090135
H39   H     H_    0.228064 0.862447 0.319828 0.118071
H40   H     H_    0.180018 0.931994 0.009443 0.126742
H41   H     H_    0.007791 0.835906 0.913603 0.125721
H42   H     H_    0.324083 0.001971 0.820098 0.122654
H43   H     H_    0.310844 0.932467 0.692321 0.086792
H44   H     H_    0.122002 0.134202 0.728944 0.201421
H45   H     H_    0.799768 0.551142 0.888087 0.115976
H46   H     H_    0.114197 0.046548 0.611583 0.193041
H47   H     H_    0.165547 0.902358 0.705703 0.270132
H48   H     H_    0.038944 0.015193 0.701588 0.268635
H49   H     H_    0.166369 0.994702 0.819895 0.263017
H50   H     H_    0.749365 0.050995 0.472882 0.110914
H51   H     H_    0.651345 0.154497 0.385182 0.095833
H52   H     H_    0.894517 0.011853 0.421854 0.194561
H53   H     H_    0.796425 0.111002 0.331834 0.205033
H54   H     H_    0.776007 0.248725 0.480163 0.272488
H55   H     H_    0.918417 0.178911 0.497515 0.268333
H56   H     H_    0.156623 0.509606 0.176951 0.108029
H57   H     H_    0.875544 0.148729 0.570175 0.272434
H58   H     H_    0.595100 0.628619 0.827647 0.128154
H59   H     H_    0.356521 0.429693 0.298826 0.114574
H60   H     H_    0.492625 0.817684 0.864967 0.094271
N1    N     N_R   0.705410 0.966550 0.689210 -0.039449
N2    N     N_R   0.556610 0.796750 0.548620 -0.038495
N3    N     N_R   0.556610 0.951620 0.703500 -0.065573
N4    N     N_R   0.443390 0.048380 0.296500 -0.060088
N5    N     N_R   0.294590 0.131500 0.522480 -0.047453
N6    N     N_R   0.705410 0.868500 0.477520 -0.046016
N7    N     N_R   0.705410 0.023370 0.632390 -0.045396
N8    N     N_R   0.294590 0.976630 0.367610 -0.044394
N9    N     N_R   0.294590 0.033450 0.310790 -0.041901
N10   N     N_R   0.294590 0.188320 0.465660 -0.046780
N11   N     N_R   0.705410 0.811680 0.534340 -0.044261
N12   N     N_R   0.556610 0.157790 0.497330 -0.060878
N13   N     N_R   0.443390 0.842210 0.502670 -0.041780
N14   N     N_R   0.443390 0.997080 0.657540 -0.093334
N15   N     N_R   0.556610 0.002920 0.342460 -0.095716
N16   N     N_R   0.443390 0.203250 0.451380 -0.039789
Ni1   Ni    Ni4+2 0.629830 0.882720 0.617850 0.208709
Ni2   Ni    Ni4+2 0.370170 0.117280 0.382150 0.205485
Ni3   Ni    Ni4+2 0.629830 0.013030 0.487540 0.208296
Ni4   Ni    Ni4+2 0.370170 0.986970 0.512460 0.217966
O1    O     O_3   0.300358 0.084540 0.717208 -0.692481
O2    O     O_3   0.699879 0.998597 0.317212 -0.696025

loop_
_geom_bond_atom_site_label_1
_geom_bond_atom_site_label_2
_ccdc_geom_bond_type
C28   H23   S    
C66   C68   S    
C63   C65   A    
C16   H16   S    
C26   H9    S    
C74   H58   S    
C29   C42   A    
C14   C18   A    
N3    N14   A    
C17   N11   A    
C17   H17   S    
C11   H45   S    
C72   H55   S    
C47   C49   A    
C15   C19   A    
C46   H28   S    
C46   C49   A    
C43   H15   S    
C66   H42   S    
C72   H54   S    
C70   O2    S    
C27   H34   S    
C14   C21   A    
C19   C21   A    
C24   C26   D    
C38   C42   A    
C30   H19   S    
C54   O2    S    
C66   O1    S    
C69   H49   S    
C40   N12   A    
C33   C36   A    
C56   C57   A    
C48   C56   S    
C58   H33   S    
C9    H5    S    
C2    C13   A    
N13   Ni4   S    
N15   Ni3   S    
C62   C64   A    
C68   H44   S    
N12   N16   A    
C68   C69   S    
C66   H43   S    
C35   C49   S    
C25   H10   S    
C13   H56   S    
C31   C33   A    
C71   H52   S    
C19   C67   S    
C70   C71   S    
C15   H8    S    
C24   H11   S    
C59   C73   A    
C44   C47   A    
N6    Ni3   S    
C7    H3    S    
C48   C50   A    
C57   H32   S    
C10   C13   A    
C8    H4    S    
C71   H53   S    
C15   C20   A    
N14   Ni4   S    
C37   H24   S    
C27   C51   D    
C54   N15   A    
C45   C47   S    
N4    N15   A    
C23   C60   A    
C37   C39   A    
C46   C48   A    
C2    H59   S    
N1    N7    A    
C51   C52   S    
C1    H1    S    
C32   C35   A    
C4    C6    A    
C5    C7    A    
C10   H6    S    
C39   C43   A    
N5    Ni4   S    
N4    Ni2   S    
C25   C26   S    
C22   C25   D    
C53   N14   A    
C51   H41   S    
C3    C74   A    
C2    C4    A    
C55   N16   A    
C41   C56   A    
C54   C73   A    
N5    N10   A    
C36   H22   S    
C41   N13   A    
C69   H47   S    
C62   H38   S    
C57   N2    A    
C22   H13   S    
N8    Ni4   S    
C9    C11   A    
N11   Ni1   S    
C70   H51   S    
N9    Ni2   S    
C55   H31   S    
C53   O1    S    
C16   C23   A    
N16   Ni2   S    
C30   C43   A    
C42   H14   S    
C17   C34   A    
C62   N7    A    
C61   H37   S    
C1    C64   A    
N2    Ni1   S    
C58   N3    A    
C72   H57   S    
C44   C50   A    
C7    C9    A    
C16   N10   A    
C22   C23   S    
C38   H25   S    
C3    C5    A    
C11   C74   A    
N6    N11   A    
C6    C8    A    
C44   H27   S    
C12   N9    A    
C61   N6    A    
C52   H40   S    
C18   C73   S    
C31   H20   S    
C6    C20   S    
C12   C65   A    
C59   N4    A    
C41   H30   S    
C12   H12   S    
C3    H60   S    
C36   C38   A    
C28   C65   S    
C33   C50   S    
C35   C37   A    
C29   C31   A    
C68   H46   S    
C40   H29   S    
C30   C32   A    
C28   C52   D    
N7    Ni3   S    
C39   H26   S    
N12   Ni3   S    
C69   H48   S    
N1    Ni1   S    
C59   H35   S    
C63   N8    A    
C18   C20   A    
C34   C61   A    
C53   C67   A    
C24   C34   S    
C4    H2    S    
N2    N13   A    
C60   H36   S    
C27   C64   S    
C60   N5    A    
C63   H39   S    
C70   H50   S    
C58   C67   A    
C71   C72   S    
C32   H21   S    
C5    C21   S    
C40   C45   A    
C45   C55   A    
C8    C10   A    
N8    N9    A    
N3    Ni1   S    
C14   H7    S    
C1    N1    A    
C29   H18   S    
N10   Ni2   S    
