data_str_m4_o17_o17_f0_acs.sym.176
_audit_creation_date              2012-12-11T14:30:09-0500
_audit_creation_method            fapswitch 2.2
_symmetry_space_group_name_H-M    P1
_symmetry_Int_Tables_number       1
_space_group_crystal_system       triclinic
_cell_length_a                    12.653317
_cell_length_b                    12.653319
_cell_length_c                    27.062975
_cell_angle_alpha                 90.000014
_cell_angle_beta                  90.000019
_cell_angle_gamma                 120.00017
_cell_volume                      3752.44443092

loop_
_atom_site_label
_atom_site_type_symbol
_atom_type_description
_atom_site_fract_x
_atom_site_fract_y
_atom_site_fract_z
_atom_type_partial_charge
C1    C     C_R   0.558635 0.455941 0.822408 0.546053
C2    C     C_R   0.897307 0.441365 0.677592 0.546052
C3    C     C_R   0.544058 0.102692 0.822408 0.546050
C4    C     C_R   0.558634 0.455942 0.677592 0.546054
C5    C     C_R   0.897306 0.441365 0.822408 0.546051
C6    C     C_R   0.544058 0.102691 0.677592 0.546051
C7    C     C_R   0.455941 0.558636 0.322409 0.546052
C8    C     C_R   0.441365 0.897307 0.177592 0.546052
C9    C     C_R   0.102692 0.544058 0.322408 0.546051
C10   C     C_R   0.455942 0.558635 0.177592 0.546053
C11   C     C_R   0.441365 0.897306 0.322408 0.546051
C12   C     C_R   0.102691 0.544058 0.177592 0.546051
C13   C     C_R   0.992951 0.498402 0.974220 0.063161
C14   C     C_R   0.505441 0.007027 0.525783 0.063161
C15   C     C_R   0.501593 0.494553 0.974218 0.063161
C16   C     C_R   0.992958 0.498405 0.525781 0.063161
C17   C     C_R   0.505443 0.007033 0.974217 0.063161
C18   C     C_R   0.501587 0.494558 0.525783 0.063161
C19   C     C_R   0.498401 0.992950 0.474220 0.063161
C20   C     C_R   0.007029 0.505441 0.025783 0.063161
C21   C     C_R   0.494549 0.501598 0.474220 0.063161
C22   C     C_R   0.498404 0.992955 0.025781 0.063161
C23   C     C_R   0.007035 0.505444 0.474218 0.063161
C24   C     C_R   0.494554 0.501592 0.025782 0.063161
C25   C     C_R   0.990687 0.689507 0.974394 -0.124368
C26   C     C_R   0.698827 0.009326 0.525606 -0.124368
C27   C     C_R   0.310493 0.301179 0.974393 -0.124368
C28   C     C_R   0.990677 0.689502 0.525605 -0.124367
C29   C     C_R   0.698821 0.009316 0.974393 -0.124368
C30   C     C_R   0.310500 0.301172 0.525606 -0.124367
C31   C     C_R   0.689505 0.990683 0.474394 -0.124367
C32   C     C_R   0.009330 0.698829 0.025606 -0.124367
C33   C     C_R   0.301179 0.310494 0.474394 -0.124368
C34   C     C_R   0.689499 0.990673 0.025605 -0.124367
C35   C     C_R   0.009320 0.698823 0.474394 -0.124368
C36   C     C_R   0.301171 0.310501 0.025605 -0.124367
C37   C     C_R   0.959756 0.576620 0.897298 -0.135256
C38   C     C_R   0.616868 0.040246 0.602703 -0.135255
C39   C     C_R   0.423378 0.383134 0.897297 -0.135255
C40   C     C_R   0.959753 0.576620 0.602702 -0.135255
C41   C     C_R   0.616866 0.040243 0.897297 -0.135256
C42   C     C_R   0.423379 0.383131 0.602703 -0.135255
C43   C     C_R   0.576619 0.959754 0.397298 -0.135256
C44   C     C_R   0.040248 0.616869 0.102703 -0.135255
C45   C     C_R   0.383134 0.423380 0.397298 -0.135255
C46   C     C_R   0.576618 0.959750 0.102702 -0.135255
C47   C     C_R   0.040245 0.616866 0.397297 -0.135255
C48   C     C_R   0.383131 0.423380 0.102702 -0.135255
C49   C     C_R   0.049471 0.524377 0.127805 -0.004983
C50   C     C_R   0.474898 0.950519 0.372197 -0.004982
C51   C     C_R   0.475621 0.525096 0.127804 -0.004983
C52   C     C_R   0.049475 0.524378 0.372196 -0.004983
C53   C     C_R   0.474901 0.950521 0.127803 -0.004982
C54   C     C_R   0.475620 0.525102 0.372197 -0.004982
C55   C     C_R   0.524377 0.049471 0.627805 -0.004983
C56   C     C_R   0.950519 0.474899 0.872197 -0.004982
C57   C     C_R   0.525094 0.475622 0.627805 -0.004984
C58   C     C_R   0.524378 0.049474 0.872196 -0.004983
C59   C     C_R   0.950522 0.474901 0.627803 -0.004983
C60   C     C_R   0.525098 0.475621 0.872196 -0.004982
C61   C     C_R   0.982540 0.589676 0.948351 0.016773
C62   C     C_R   0.607137 0.017458 0.551650 0.016773
C63   C     C_R   0.410321 0.392864 0.948351 0.016772
C64   C     C_R   0.982537 0.589676 0.551649 0.016772
C65   C     C_R   0.607135 0.017455 0.948350 0.016773
C66   C     C_R   0.410321 0.392862 0.551650 0.016771
C67   C     C_R   0.589675 0.982537 0.448352 0.016773
C68   C     C_R   0.017460 0.607138 0.051650 0.016772
C69   C     C_R   0.392862 0.410325 0.448352 0.016772
C70   C     C_R   0.589674 0.982534 0.051648 0.016772
C71   C     C_R   0.017458 0.607136 0.448350 0.016773
C72   C     C_R   0.392860 0.410324 0.051649 0.016771
C73   C     C_R   0.971193 0.390400 0.897873 -0.128093
C74   C     C_R   0.419195 0.028775 0.602132 -0.128097
C75   C     C_R   0.609593 0.580798 0.897871 -0.128094
C76   C     C_R   0.971206 0.390408 0.602129 -0.128094
C77   C     C_R   0.419200 0.028787 0.897870 -0.128096
C78   C     C_R   0.609581 0.580804 0.602132 -0.128097
C79   C     C_R   0.390400 0.971194 0.397873 -0.128093
C80   C     C_R   0.028775 0.419195 0.102132 -0.128097
C81   C     C_R   0.580794 0.609600 0.397873 -0.128093
C82   C     C_R   0.390407 0.971205 0.102129 -0.128094
C83   C     C_R   0.028788 0.419200 0.397870 -0.128095
C84   C     C_R   0.580802 0.609587 0.102130 -0.128095
C85   C     C_R   0.988062 0.399013 0.948654 0.013965
C86   C     C_R   0.410934 0.011900 0.551350 0.013966
C87   C     C_R   0.600979 0.589056 0.948653 0.013965
C88   C     C_R   0.988077 0.399021 0.551347 0.013966
C89   C     C_R   0.410940 0.011913 0.948651 0.013965
C90   C     C_R   0.600967 0.589065 0.551350 0.013966
C91   C     C_R   0.399012 0.988062 0.448655 0.013966
C92   C     C_R   0.011901 0.410934 0.051350 0.013966
C93   C     C_R   0.589050 0.600987 0.448654 0.013966
C94   C     C_R   0.399020 0.988075 0.051347 0.013966
C95   C     C_R   0.011915 0.410941 0.448651 0.013965
C96   C     C_R   0.589060 0.600974 0.051349 0.013966
C97   C     C_R   0.005076 0.311717 0.025586 -0.124245
C98   C     C_R   0.306612 0.994869 0.474420 -0.124244
C99   C     C_R   0.688275 0.693369 0.025584 -0.124244
C100  C     C_R   0.005099 0.311727 0.474416 -0.124245
C101  C     C_R   0.306622 0.994889 0.025582 -0.124245
C102  C     C_R   0.688258 0.693388 0.474420 -0.124244
C103  C     C_R   0.311717 0.005076 0.525586 -0.124246
C104  C     C_R   0.994868 0.306611 0.974420 -0.124244
C105  C     C_R   0.693360 0.688283 0.525586 -0.124245
C106  C     C_R   0.311727 0.005097 0.974416 -0.124245
C107  C     C_R   0.994891 0.306623 0.525582 -0.124245
C108  C     C_R   0.693379 0.688266 0.974418 -0.124244
Cr1   Cr    Cr6+3 0.487630 0.241180 0.750000 1.008713
Cr2   Cr    Cr6+3 0.753550 0.512370 0.750000 1.008713
Cr3   Cr    Cr6+3 0.758820 0.246450 0.750000 1.008712
Cr4   Cr    Cr6+3 0.241180 0.487630 0.250000 1.008713
Cr5   Cr    Cr6+3 0.512370 0.753550 0.250000 1.008713
Cr6   Cr    Cr6+3 0.246450 0.758820 0.250000 1.008712
H1    H     H_    0.056119 0.698271 0.122282 0.118456
H2    H     H_    0.642158 0.943897 0.377717 0.118451
H3    H     H_    0.301730 0.357847 0.122282 0.118457
H4    H     H_    0.056110 0.698266 0.377717 0.118453
H5    H     H_    0.642154 0.943887 0.122282 0.118454
H6    H     H_    0.301738 0.357841 0.377717 0.118453
H7    H     H_    0.698270 0.056117 0.622282 0.118455
H8    H     H_    0.943900 0.642160 0.877717 0.118451
H9    H     H_    0.357847 0.301728 0.622282 0.118457
H10   H     H_    0.698265 0.056107 0.877717 0.118452
H11   H     H_    0.943890 0.642156 0.622282 0.118455
H12   H     H_    0.357841 0.301737 0.877717 0.118453
H13   H     H_    0.016949 0.777436 0.044843 0.093827
H14   H     H_    0.760500 0.983079 0.455155 0.093826
H15   H     H_    0.222566 0.239510 0.044843 0.093831
H16   H     H_    0.016931 0.777427 0.455155 0.093827
H17   H     H_    0.760491 0.983062 0.044843 0.093828
H18   H     H_    0.222578 0.239499 0.455155 0.093830
H19   H     H_    0.777434 0.016944 0.544844 0.093826
H20   H     H_    0.983084 0.760502 0.955155 0.093827
H21   H     H_    0.239510 0.222564 0.544843 0.093831
H22   H     H_    0.777425 0.016927 0.955155 0.093826
H23   H     H_    0.983067 0.760494 0.544844 0.093830
H24   H     H_    0.239499 0.222577 0.955155 0.093830
H25   H     H_    0.035012 0.346850 0.120959 0.128967
H26   H     H_    0.311811 0.964945 0.379047 0.128968
H27   H     H_    0.653146 0.688171 0.120957 0.128967
H28   H     H_    0.035031 0.346858 0.379043 0.128969
H29   H     H_    0.311821 0.964962 0.120955 0.128967
H30   H     H_    0.653135 0.688189 0.379046 0.128968
H31   H     H_    0.346851 0.035014 0.620959 0.128967
H32   H     H_    0.964944 0.311810 0.879046 0.128968
H33   H     H_    0.688164 0.653149 0.620959 0.128968
H34   H     H_    0.346858 0.035031 0.879043 0.128969
H35   H     H_    0.964962 0.311821 0.620956 0.128967
H36   H     H_    0.688180 0.653139 0.879044 0.128969
O1    O     O_R   0.460870 0.120930 0.805240 -0.522762
O2    O     O_R   0.660060 0.539130 0.694760 -0.522762
O3    O     O_R   0.879070 0.339940 0.805240 -0.522762
O4    O     O_R   0.460870 0.120930 0.694760 -0.522762
O5    O     O_R   0.660060 0.539130 0.805240 -0.522762
O6    O     O_R   0.879070 0.339940 0.694760 -0.522761
O7    O     O_R   0.120930 0.460870 0.305240 -0.522762
O8    O     O_R   0.539130 0.660060 0.194760 -0.522761
O9    O     O_R   0.339940 0.879070 0.305240 -0.522761
O10   O     O_R   0.120930 0.460870 0.194760 -0.522761
O11   O     O_R   0.539130 0.660060 0.305240 -0.522762
O12   O     O_R   0.339940 0.879070 0.194760 -0.522761
O13   O     O_R   0.498910 0.350470 0.801870 -0.500413
O14   O     O_R   0.851560 0.501090 0.698130 -0.500412
O15   O     O_R   0.649530 0.148440 0.801870 -0.500413
O16   O     O_R   0.498910 0.350470 0.698130 -0.500413
O17   O     O_R   0.851560 0.501090 0.801870 -0.500412
O18   O     O_R   0.649530 0.148440 0.698130 -0.500413
O19   O     O_R   0.350470 0.498910 0.301870 -0.500412
O20   O     O_R   0.501090 0.851560 0.198130 -0.500413
O21   O     O_R   0.148440 0.649530 0.301870 -0.500413
O22   O     O_R   0.350470 0.498910 0.198130 -0.500412
O23   O     O_R   0.501090 0.851560 0.301870 -0.500413
O24   O     O_R   0.148440 0.649530 0.198130 -0.500413
O25   O     O_3   0.666667 0.333333 0.750000 -0.230057
O26   O     O_3   0.333333 0.666667 0.250000 -0.230057
H37   H     H_    0.009477 0.239020 0.044937 0.092906
H38   H     H_    0.229507 0.990455 0.455070 0.092903
H39   H     H_    0.760971 0.770469 0.044935 0.092906
H40   H     H_    0.009506 0.239034 0.455066 0.092906
H41   H     H_    0.229520 0.990481 0.044932 0.092904
H42   H     H_    0.760950 0.770493 0.455070 0.092905
H43   H     H_    0.239021 0.009478 0.544937 0.092906
H44   H     H_    0.990454 0.229506 0.955071 0.092904
H45   H     H_    0.770458 0.760980 0.544937 0.092907
H46   H     H_    0.239034 0.009505 0.955066 0.092906
H47   H     H_    0.990482 0.229521 0.544932 0.092905
H48   H     H_    0.770482 0.760959 0.955068 0.092906

loop_
_geom_bond_atom_site_label_1
_geom_bond_atom_site_label_2
_ccdc_geom_bond_type
C44   C49   A    
C82   C94   A    
C18   C21   A    
C5    C56   S    
C6    C55   S    
C50   C79   A    
C12   C49   S    
C41   H10   S    
C11   O9    A    
Cr2   O25   S    
C78   C90   A    
C31   C67   A    
C99   C108  A    
C20   C92   A    
C77   C89   A    
Cr3   O25   S    
C84   H27   S    
C32   H13   S    
Cr5   O23   S    
Cr1   O1    S    
C41   C58   A    
Cr2   O2    S    
C24   C96   A    
C44   C68   A    
Cr6   O12   S    
C10   C51   S    
C75   H36   S    
C10   O22   A    
C98   C103  A    
C14   C62   A    
C96   C99   A    
C107  H47   S    
C102  C105  A    
C84   C96   A    
C105  H45   S    
C1    O5    A    
Cr2   O5    S    
C74   H31   S    
C58   C77   A    
C37   C56   A    
C48   C51   A    
C38   C55   A    
C94   C101  A    
C4    O16   A    
C89   C106  A    
C92   C97   A    
C3    O15   A    
C19   C67   A    
Cr3   O15   S    
Cr5   O8    S    
C98   H38   S    
Cr3   O6    S    
C34   C70   A    
C79   C91   A    
C13   C20   A    
C33   C69   A    
C32   C68   A    
C25   C32   A    
Cr6   O26   S    
C79   H26   S    
C35   C71   A    
C26   C31   A    
C40   C59   A    
C22   C94   A    
C9    C52   S    
C31   H14   S    
C48   C72   A    
C86   C103  A    
C57   C78   A    
C42   C57   A    
C8    O20   A    
C42   H9    S    
C81   H30   S    
Cr6   O21   S    
C4    O2    A    
C6    O18   A    
C11   O23   A    
C27   H24   S    
Cr4   O7    S    
C87   C108  A    
C45   C69   A    
C102  H42   S    
C23   C71   A    
C17   C89   A    
C14   C86   A    
Cr1   O13   S    
C1    C60   S    
C2    O14   A    
C88   C107  A    
Cr2   O14   S    
C2    C59   S    
C41   C65   A    
C29   C34   A    
C44   H1    S    
C12   O10   A    
C76   C88   A    
C21   C69   A    
C53   C82   A    
C47   H4    S    
C18   C90   A    
C80   C92   A    
C52   C83   A    
C99   H39   S    
C25   H20   S    
C43   H2    S    
C83   H28   S    
C81   C93   A    
Cr2   O17   S    
C97   H37   S    
Cr4   O19   S    
C77   H34   S    
C9    O7    A    
C83   C95   A    
C25   C61   A    
C74   C86   A    
C7    O11   A    
Cr1   O4    S    
Cr3   O3    S    
C35   H16   S    
C106  H46   S    
C30   C66   A    
C85   C104  A    
C27   C63   A    
C78   H33   S    
Cr5   O26   S    
C29   C65   A    
C39   C60   A    
C28   C64   A    
C45   H6    S    
C75   C87   A    
C15   C24   A    
Cr4   O26   S    
C34   H17   S    
C16   C23   A    
C11   C50   S    
C7    O19   A    
C103  H43   S    
C9    O21   A    
C47   C71   A    
C13   C85   A    
C100  H40   S    
C101  H41   S    
C24   C72   A    
C12   O24   A    
C73   C85   A    
C101  C106  A    
C28   C35   A    
C10   O8    A    
C33   H18   S    
C100  C107  A    
C2    O6    A    
C56   C73   A    
Cr4   O10   S    
C30   C33   A    
C104  H44   S    
C95   C100  A    
C93   C102  A    
C3    O1    A    
C14   C19   A    
C20   C68   A    
C42   C66   A    
C28   H23   S    
C90   C105  A    
C82   H29   S    
C8    C53   S    
C45   C54   A    
C108  H48   S    
C37   C61   A    
Cr1   O25   S    
C43   C50   A    
Cr5   O20   S    
C48   H3    S    
C27   C36   A    
C18   C66   A    
C80   H25   S    
C39   C63   A    
C60   C75   A    
C17   C65   A    
C17   C22   A    
C40   C64   A    
C49   C80   A    
C73   H32   S    
C26   C62   A    
C97   C104  A    
C55   C74   A    
C26   H19   S    
C8    O12   A    
C36   H15   S    
C6    O4    A    
Cr4   O22   S    
C21   C93   A    
C76   H35   S    
C5    O3    A    
C40   H11   S    
C59   C76   A    
C46   C53   A    
C23   C95   A    
C46   H5    S    
C5    O17   A    
C91   C98   A    
Cr6   O9    S    
C46   C70   A    
C38   H7    S    
C19   C91   A    
Cr1   O16   S    
Cr5   O11   S    
C37   H8    S    
C3    C58   S    
Cr6   O24   S    
C29   H22   S    
C13   C61   A    
C1    O13   A    
C43   C67   A    
C30   H21   S    
C15   C87   A    
C47   C52   A    
C39   H12   S    
C15   C63   A    
Cr3   O18   S    
C16   C64   A    
C7    C54   S    
C51   C84   A    
C22   C70   A    
C54   C81   A    
C16   C88   A    
C36   C72   A    
C4    C57   S    
C38   C62   A    
