data_str_m9_o16_o20_f0_sra.sym.109
_audit_creation_date              2012-12-11T15:10:40-0500
_audit_creation_method            fapswitch 2.2
_symmetry_space_group_name_H-M    P1
_symmetry_Int_Tables_number       1
_space_group_crystal_system       triclinic
_cell_length_a                    20.958261
_cell_length_b                    7.23062
_cell_length_c                    18.461124
_cell_angle_alpha                 89.999966
_cell_angle_beta                  93.462131
_cell_angle_gamma                 90.000029
_cell_volume                      2792.51541944

loop_
_atom_site_label
_atom_site_type_symbol
_atom_type_description
_atom_site_fract_x
_atom_site_fract_y
_atom_site_fract_z
_atom_type_partial_charge
O1    O     O_R   0.448880 0.506250 0.415280 -0.531387
O2    O     O_R   0.551120 0.006250 0.584720 -0.531386
O3    O     O_R   0.434830 0.174000 0.557310 -0.521141
O4    O     O_R   0.565170 0.674000 0.442690 -0.521142
C1    C     C_R   0.416995 0.344594 0.579742 0.696155
C2    C     C_R   0.583005 0.844594 0.420258 0.696155
O5    O     O_R   0.441680 0.176440 0.414130 -0.532380
O6    O     O_R   0.558320 0.676440 0.585870 -0.532380
O7    O     O_R   0.558020 0.007570 0.440520 -0.519531
O8    O     O_R   0.441980 0.507570 0.559480 -0.519531
C3    C     C_R   0.427496 0.344661 0.389066 0.691962
C4    C     C_R   0.572504 0.844661 0.610934 0.691963
O9    O     O_3   0.538160 0.339670 0.508820 -0.364462
O10   O     O_3   0.461840 0.839670 0.491180 -0.364462
V1    V     V_3+5 0.492920 0.064260 0.498360 1.419471
V2    V     V_3+5 0.507080 0.564260 0.501640 1.419469
C5    C     C_R   0.872730 0.043034 0.694047 -0.204525
C6    C     C_R   0.127271 0.543041 0.305952 -0.204527
H1    H     H_    0.894093 0.087020 0.644963 0.134946
H2    H     H_    0.105908 0.587030 0.355035 0.134946
C7    C     C_R   0.888041 0.946842 0.819250 -0.087405
C8    C     C_R   0.111959 0.446843 0.180750 -0.087406
C9    C     C_R   0.585143 0.765735 0.738628 -0.237804
C10   C     C_R   0.414856 0.265729 0.261373 -0.237802
C11   C     C_R   0.616075 0.767323 0.807223 0.031656
C12   C     C_R   0.383924 0.267315 0.192778 0.031656
C13   C     C_R   0.677053 0.851482 0.818750 0.103101
C14   C     C_R   0.322947 0.351475 0.181249 0.103101
C15   C     C_R   0.711507 0.902726 0.756374 0.012739
C16   C     C_R   0.288494 0.402725 0.243626 0.012739
C17   C     C_R   0.675678 0.912696 0.687583 0.027042
C18   C     C_R   0.324322 0.412698 0.312416 0.027042
C19   C     C_R   0.779400 0.941762 0.758069 0.072063
C20   C     C_R   0.220601 0.441763 0.241930 0.072063
C21   C     C_R   0.806408 0.011176 0.694206 0.080849
C22   C     C_R   0.193593 0.511183 0.305793 0.080848
C23   C     C_R   0.767604 0.038172 0.629855 -0.019140
C24   C     C_R   0.232397 0.538186 0.370143 -0.019140
C25   C     C_R   0.704027 0.983733 0.626791 -0.218586
C26   C     C_R   0.295974 0.483742 0.373207 -0.218587
C27   C     C_R   0.822539 0.903394 0.818900 -0.253126
C28   C     C_R   0.177461 0.403393 0.181100 -0.253127
C29   C     C_R   0.913496 0.012137 0.755391 0.002932
C30   C     C_R   0.086505 0.512141 0.244608 0.002933
C31   C     C_R   0.611857 0.847998 0.680110 -0.093560
C32   C     C_R   0.388143 0.347997 0.319889 -0.093562
H3    H     H_    0.807121 0.837086 0.866611 0.146627
H4    H     H_    0.192878 0.337082 0.133389 0.146627
H5    H     H_    0.537949 0.703906 0.731150 0.132483
H6    H     H_    0.462050 0.203899 0.268852 0.132484
H7    H     H_    0.676584 0.997734 0.575429 0.122333
H8    H     H_    0.323417 0.497748 0.424569 0.122335
C33   C     C_1   0.863670 0.940180 0.131087 -0.203461
C34   C     C_1   0.136330 0.440180 0.868913 -0.203462
C35   C     C_1   0.820343 0.927641 0.174294 -0.011310
C36   C     C_1   0.179657 0.427641 0.825706 -0.011311
C37   C     C_1   0.769691 0.909277 0.226324 -0.029345
C38   C     C_1   0.230309 0.409277 0.773676 -0.029345
C39   C     C_1   0.727407 0.891967 0.270601 -0.019484
C40   C     C_1   0.272593 0.391967 0.729398 -0.019486
C41   C     C_1   0.677393 0.871465 0.323302 0.002675
C42   C     C_1   0.322607 0.371465 0.676698 0.002673
C43   C     C_1   0.634960 0.856364 0.367525 -0.200956
C44   C     C_1   0.365040 0.356364 0.632475 -0.200957
O11   O     O_R   0.058070 0.289240 0.940580 -0.513244
O12   O     O_R   0.941930 0.789240 0.059420 -0.513244
O13   O     O_R   0.058330 0.616740 0.085880 -0.529501
O14   O     O_R   0.941670 0.116740 0.914120 -0.529502
C45   C     C_R   0.072043 0.448954 0.111649 0.694307
C46   C     C_R   0.927957 0.948955 0.888351 0.694308
O15   O     O_R   0.065180 0.619040 0.942700 -0.525870
O16   O     O_R   0.934820 0.119040 0.057300 -0.525870
O17   O     O_R   0.948870 0.787780 0.915270 -0.536593
O18   O     O_R   0.051130 0.287780 0.084730 -0.536593
C47   C     C_R   0.083434 0.450503 0.920448 0.705197
C48   C     C_R   0.916566 0.950503 0.079552 0.705197
O19   O     O_3   0.961870 0.453310 0.991210 -0.365517
O20   O     O_3   0.038130 0.953310 0.008790 -0.365518
V3    V     V_3+5 0.007070 0.728770 0.001630 1.417211
V4    V     V_3+5 0.992930 0.228770 0.998370 1.417211
C49   C     C_R   0.983288 0.037144 0.749289 0.082616
C50   C     C_R   0.025774 0.891058 0.766912 -0.117922
C51   C     C_R   0.090863 0.909524 0.756069 -0.131986
C52   C     C_R   0.113974 0.072659 0.726801 -0.100595
C53   C     C_R   0.072192 0.218649 0.709127 -0.111876
C54   C     C_R   0.007130 0.201487 0.720459 -0.133335
H9    H     H_    0.008344 0.761226 0.787271 0.105275
H10   H     H_    0.123234 0.796160 0.769169 0.117662
H11   H     H_    0.164223 0.085194 0.717331 0.115332
H12   H     H_    0.090177 0.344994 0.686438 0.107264
H13   H     H_    0.975259 0.315405 0.706111 0.106021
C55   C     C_R   0.016713 0.537147 0.250711 0.082617
C56   C     C_R   0.974227 0.391061 0.233089 -0.117923
C57   C     C_R   0.909138 0.409525 0.243933 -0.131990
C58   C     C_R   0.886027 0.572661 0.273201 -0.100590
C59   C     C_R   0.927809 0.718652 0.290874 -0.111876
C60   C     C_R   0.992871 0.701490 0.279540 -0.133335
H14   H     H_    0.991657 0.261228 0.212730 0.105274
H15   H     H_    0.876766 0.296160 0.230834 0.117661
H16   H     H_    0.835778 0.585195 0.282673 0.115331
H17   H     H_    0.909824 0.844997 0.313563 0.107261
H18   H     H_    0.024742 0.815410 0.293888 0.106020
C61   C     C_R   0.792536 0.116332 0.562917 0.094885
C62   C     C_R   0.796428 0.005358 0.500886 -0.135288
C63   C     C_R   0.820057 0.079046 0.437830 -0.112122
C64   C     C_R   0.839353 0.263922 0.436116 -0.093653
C65   C     C_R   0.834984 0.375726 0.497400 -0.119779
C66   C     C_R   0.811609 0.302422 0.560701 -0.138303
H19   H     H_    0.781655 0.861821 0.501628 0.105368
H20   H     H_    0.823514 0.992772 0.390356 0.109551
H21   H     H_    0.857706 0.320371 0.387329 0.115368
H22   H     H_    0.849773 0.519055 0.495867 0.111217
H23   H     H_    0.808417 0.390090 0.607931 0.115667
C67   C     C_R   0.207467 0.616362 0.437079 0.094885
C68   C     C_R   0.203576 0.505403 0.499115 -0.135290
C69   C     C_R   0.179948 0.579106 0.562167 -0.112122
C70   C     C_R   0.160651 0.763982 0.563875 -0.093656
C71   C     C_R   0.165018 0.875770 0.502586 -0.119781
C72   C     C_R   0.188392 0.802450 0.439287 -0.138300
H24   H     H_    0.218350 0.361867 0.498378 0.105368
H25   H     H_    0.176493 0.492844 0.609645 0.109555
H26   H     H_    0.142298 0.820442 0.612659 0.115370
H27   H     H_    0.150228 0.019099 0.504113 0.111218
H28   H     H_    0.191583 0.890106 0.392053 0.115668
C73   C     C_3   0.694175 0.928271 0.894343 -0.362796
C74   C     C_3   0.713931 0.779536 0.950570 -0.763250
H29   H     H_    0.671778 0.731258 0.978881 0.231837
H30   H     H_    0.736370 0.658581 0.925122 0.220722
H31   H     H_    0.748543 0.838840 0.992214 0.215216
H32   H     H_    0.731348 0.037183 0.893030 0.173666
H33   H     H_    0.651979 0.002917 0.913491 0.171086
C75   C     C_3   0.305825 0.428258 0.105655 -0.362796
C76   C     C_3   0.286068 0.279519 0.049431 -0.763248
H34   H     H_    0.328220 0.231236 0.021121 0.231837
H35   H     H_    0.263629 0.158567 0.074881 0.220721
H36   H     H_    0.251456 0.338820 0.007787 0.215216
H37   H     H_    0.268653 0.537172 0.106967 0.173665
H38   H     H_    0.348021 0.502900 0.086506 0.171085
C77   C     C_R   0.581230 0.676204 0.864423 0.123103
C78   C     C_R   0.521455 0.745829 0.881801 -0.164071
C79   C     C_R   0.479957 0.636644 0.919966 -0.132646
C80   C     C_R   0.498128 0.458704 0.942063 -0.098311
C81   C     C_R   0.557913 0.389407 0.925929 -0.127499
C82   C     C_R   0.599246 0.497179 0.886885 -0.125326
H39   H     H_    0.505736 0.880743 0.862431 0.116048
H40   H     H_    0.433034 0.688393 0.930721 0.117392
H41   H     H_    0.465196 0.373424 0.970165 0.125898
H42   H     H_    0.571301 0.249693 0.941161 0.102250
H43   H     H_    0.643771 0.437846 0.871006 0.109901
C83   C     C_R   0.418770 0.176194 0.135578 0.123104
C84   C     C_R   0.478544 0.245821 0.118199 -0.164073
C85   C     C_R   0.520043 0.136635 0.080036 -0.132647
C86   C     C_R   0.501873 0.958693 0.057941 -0.098306
C87   C     C_R   0.442088 0.889394 0.074075 -0.127501
C88   C     C_R   0.400754 0.997167 0.113118 -0.125327
H44   H     H_    0.494262 0.380737 0.137568 0.116047
H45   H     H_    0.566966 0.188386 0.069281 0.117391
H46   H     H_    0.534806 0.873412 0.029840 0.125898
H47   H     H_    0.428701 0.749678 0.058845 0.102250
H48   H     H_    0.356231 0.937833 0.128997 0.109901

loop_
_geom_bond_atom_site_label_1
_geom_bond_atom_site_label_2
_ccdc_geom_bond_type
O14   V4    S    
C25   H7    S    
C63   H20   S    
C56   C57   A    
C9    C31   A    
C76   H34   S    
C13   C15   A    
C65   H22   S    
C58   C59   A    
O1    C3    A    
O16   C48   A    
O2    C4    A    
C2    O7    A    
O15   V3    S    
C67   C68   A    
C72   H28   S    
O5    C3    A    
O12   V3    S    
C74   H29   S    
C11   C77   S    
C10   C12   A    
C54   H13   S    
C53   C54   A    
C62   H19   S    
C24   C67   S    
C37   C39   T    
C64   C65   A    
C75   H38   S    
C50   H9    S    
C15   C19   A    
C69   C70   A    
C40   C42   S    
C86   H46   S    
C41   C43   T    
C71   C72   A    
C42   C44   T    
C19   C21   A    
C7    C29   A    
C73   H32   S    
C8    C30   A    
C17   C25   A    
C75   C76   S    
C20   C28   A    
C76   H36   S    
C84   C85   A    
C61   C66   A    
C8    C45   S    
C20   C22   A    
C60   H18   S    
C30   C55   S    
O5    V1    S    
C51   H10   S    
O6    V2    S    
O11   V4    S    
O18   V4    S    
C59   H17   S    
C62   C63   A    
C55   C60   A    
C49   C50   A    
C38   C40   T    
C64   H21   S    
C33   C35   T    
C10   H6    S    
C81   H42   S    
C23   C25   A    
C77   C78   A    
C34   C36   T    
C39   C41   S    
C69   H25   S    
C16   C20   A    
C12   C83   S    
O13   V3    S    
C52   C53   A    
O4    C2    A    
C23   C61   S    
C58   H16   S    
C74   H31   S    
C75   H37   S    
C26   H8    S    
O16   V4    S    
C1    C44   S    
O13   C45   A    
C66   H23   S    
O4    V2    S    
C70   H26   S    
C5    C29   A    
C82   H43   S    
C6    C30   A    
C2    C43   S    
C77   C82   A    
C73   H33   S    
C51   C52   A    
O10   V1    S    
O6    C4    A    
O12   C48   A    
C59   C60   A    
C46   O17   A    
C27   H3    S    
C49   C54   A    
C45   O18   A    
O1    V2    S    
C28   H4    S    
C84   H44   S    
C78   C79   A    
O2    V1    S    
C87   C88   A    
C79   H40   S    
C7    C27   A    
C68   H24   S    
C83   C88   A    
C35   C37   S    
C73   C74   S    
C29   C49   S    
C33   C48   S    
C52   H11   S    
C65   C66   A    
O3    V1    S    
O19   V4    S    
C85   H45   S    
C74   H30   S    
C21   C23   A    
C88   H48   S    
O20   V3    S    
C18   C32   A    
C80   H41   S    
O15   C47   A    
C4    C31   S    
O3    C1    A    
C78   H39   S    
C53   H12   S    
C11   C13   A    
O17   V3    S    
C63   C64   A    
C12   C14   A    
O11   C47   A    
C7    C46   S    
C19   C27   A    
C22   C24   A    
O7    V1    S    
C10   C32   A    
C87   H47   S    
C15   C17   A    
O8    V2    S    
C79   C80   A    
C16   C18   A    
C13   C73   S    
C68   C69   A    
C8    C28   A    
C67   C72   A    
C24   C26   A    
C57   H15   S    
C14   C16   A    
C55   C56   A    
C5    H1    S    
C36   C38   S    
C6    H2    S    
C71   H27   S    
C18   C26   A    
C57   C58   A    
C9    H5    S    
C34   C47   S    
C1    O8    A    
C9    C11   A    
C85   C86   A    
O14   C46   A    
C50   C51   A    
C17   C31   A    
O9    V2    S    
C61   C62   A    
C76   H35   S    
C80   C81   A    
C3    C32   S    
C5    C21   A    
C14   C75   S    
C86   C87   A    
C70   C71   A    
C6    C22   A    
C56   H14   S    
C81   C82   A    
C83   C84   A    
