data_str_m12_o9_o22_f0_bcu.sym.147
_audit_creation_date              2012-12-11T17:45:21-0500
_audit_creation_method            fapswitch 2.2
_symmetry_space_group_name_H-M    P1
_symmetry_Int_Tables_number       1
_space_group_crystal_system       triclinic
_cell_length_a                    15.029049
_cell_length_b                    14.9115
_cell_length_c                    15.06424
_cell_angle_alpha                 110.191631
_cell_angle_beta                  108.950285
_cell_angle_gamma                 109.29552
_cell_volume                      2597.82483457

loop_
_atom_site_label
_atom_site_type_symbol
_atom_type_description
_atom_site_fract_x
_atom_site_fract_y
_atom_site_fract_z
_atom_type_partial_charge
C1    C     C_R   0.903574 0.192010 0.987943 -0.153260
C2    C     C_R   0.293924 0.872567 0.297957 0.047927
C3    C     C_R   0.324497 0.499779 0.048447 0.011338
C4    C     C_R   0.045179 0.496267 0.321057 0.038212
C5    C     C_R   0.700182 0.407780 0.003323 -0.087545
C6    C     C_R   0.090861 0.589611 0.788686 -0.099751
C7    C     C_R   0.779573 0.247486 0.686506 -0.113030
C8    C     C_R   0.934591 0.750147 0.027622 -0.181329
C9    C     C_R   0.040829 0.766523 0.951259 0.333378
C10   C     C_R   0.685483 0.240166 0.775660 -0.100321
C11   C     C_R   0.789478 0.590886 0.094137 -0.128833
C12   C     C_R   0.295243 0.806553 0.207018 -0.125598
C13   C     C_R   0.004617 0.406966 0.701673 -0.159134
C14   C     C_R   0.697217 0.498669 0.063733 -0.024350
C15   C     C_R   0.062149 0.496800 0.697234 0.058551
C16   C     C_R   0.675919 0.210260 0.672834 0.065380
C17   C     C_R   0.958578 0.787789 0.960911 0.014060
C18   C     C_R   0.694470 0.263861 0.176754 -0.228051
C19   C     C_R   0.791642 0.344608 0.274852 0.012548
C20   C     C_R   0.872191 0.316758 0.313656 0.075915
C21   C     C_R   0.850900 0.208394 0.255972 -0.234341
C22   C     C_R   0.753560 0.129643 0.158911 -0.097774
C23   C     C_R   0.222423 0.407539 0.973322 -0.142264
C24   C     C_R   0.675998 0.157689 0.118979 -0.092291
C25   C     C_R   0.993737 0.399780 0.505536 -0.205846
C26   C     C_R   0.079578 0.489299 0.606360 0.070810
C27   C     C_R   0.165356 0.573873 0.613458 0.032288
C28   C     C_R   0.155949 0.570188 0.516672 -0.230849
C29   C     C_R   0.062764 0.486593 0.416876 0.108049
C30   C     C_R   0.980905 0.399648 0.411453 0.075528
C31   C     C_R   0.293876 0.777261 0.740146 -0.146424
C32   C     C_R   0.374716 0.866994 0.843773 -0.114528
C33   C     C_R   0.421997 0.849318 0.927893 -0.094070
C34   C     C_R   0.060985 0.590711 0.314321 -0.100341
C35   C     C_R   0.390642 0.742087 0.907787 -0.115906
C36   C     C_R   0.313195 0.652046 0.803325 -0.156139
C37   C     C_R   0.260714 0.668654 0.719315 0.108853
C38   C     C_R   0.106549 0.001942 0.453475 -0.270804
C39   C     C_R   0.205516 0.049912 0.455795 -0.007499
C40   C     C_R   0.283525 0.019502 0.494036 0.074485
C41   C     C_R   0.267020 0.954361 0.542419 -0.248912
C42   C     C_R   0.167813 0.907005 0.538732 -0.098737
C43   C     C_R   0.086154 0.927079 0.490044 -0.051812
C44   C     C_R   0.478570 0.133321 0.570221 -0.176352
C45   C     C_R   0.313662 0.592301 0.065447 -0.140665
C46   C     C_R   0.574935 0.148063 0.568777 0.051060
C47   C     C_R   0.570327 0.093836 0.468218 0.000843
C48   C     C_R   0.470943 0.030028 0.373923 -0.180172
C49   C     C_R   0.376782 0.989057 0.380794 0.096593
C50   C     C_R   0.379335 0.048547 0.479274 0.087164
C51   C     C_R   0.721726 0.116978 0.425490 -0.168037
C52   C     C_R   0.799135 0.087681 0.417268 -0.120124
C53   C     C_R   0.803353 0.002497 0.434499 -0.129675
C54   C     C_R   0.731528 0.947551 0.461810 -0.123530
C55   C     C_R   0.658324 0.980621 0.476307 -0.135691
C56   C     C_R   0.979789 0.407121 0.217366 -0.136771
C57   C     C_R   0.653710 0.066180 0.459198 0.103068
C58   C     C_3   0.529016 0.489706 0.956523 -0.142312
C59   C     C_3   0.427826 0.492702 0.955146 -0.499394
C60   C     C_3   0.531029 0.398514 0.072664 -0.428980
C61   C     C_3   0.629499 0.603287 0.164092 -0.417882
C62   C     C_3   0.598680 0.496580 0.064152 0.299951
C63   C     C_3   0.424781 0.498889 0.058893 0.390209
C64   C     C_3   0.426120 0.397556 0.065187 -0.390616
C65   C     C_3   0.527100 0.604555 0.161369 -0.398472
C66   C     C_R   0.038690 0.059106 0.665519 -0.134218
C67   C     C_R   0.202962 0.805758 0.295697 -0.150165
C68   C     C_R   0.968663 0.001111 0.693141 -0.174424
C69   C     C_R   0.011784 0.997367 0.788626 0.115457
C70   C     C_R   0.124647 0.043041 0.849910 -0.141890
C71   C     C_R   0.193574 0.095006 0.818174 -0.148116
C72   C     C_R   0.150883 0.105682 0.727705 -0.081080
C73   C     C_R   0.935273 0.861389 0.836194 -0.219625
C74   C     C_R   0.908692 0.840969 0.910695 0.076079
C75   C     C_R   0.844050 0.882118 0.940441 0.067423
C76   C     C_R   0.827698 0.956678 0.911890 -0.237779
C77   C     C_R   0.894985 0.009597 0.879470 0.056768
C78   C     C_R   0.998441 0.197444 0.902061 -0.141590
C79   C     C_R   0.941306 0.953896 0.829912 0.017724
C80   C     C_R   0.703338 0.792480 0.979746 -0.194439
C81   C     C_R   0.664829 0.790902 0.052006 -0.145064
C82   C     C_R   0.732085 0.866301 0.163048 -0.180140
C83   C     C_R   0.838813 0.944078 0.202754 -0.151346
C84   C     C_R   0.878129 0.949265 0.131156 0.296516
C85   C     C_R   0.809984 0.871170 0.018702 0.047605
C86   C     C_R   0.932684 0.128418 0.922655 0.070947
H1    H     H_    0.842824 0.162957 0.009907 0.103567
H2    H     H_    0.145654 0.673280 0.816197 0.131174
H3    H     H_    0.804652 0.246647 0.627534 0.120818
H4    H     H_    0.875745 0.750428 0.052772 0.139672
H5    H     H_    0.621580 0.224373 0.796084 0.091677
H6    H     H_    0.818562 0.676040 0.149745 0.099845
H7    H     H_    0.982555 0.322472 0.651586 0.098893
H8    H     H_    0.601306 0.097197 0.042862 0.099142
H9    H     H_    0.632072 0.282426 0.144352 0.102398
H10   H     H_    0.344515 0.832759 0.172757 0.086379
H11   H     H_    0.912031 0.186548 0.284181 0.129488
H12   H     H_    0.738738 0.047283 0.113294 0.136010
H13   H     H_    0.926744 0.336128 0.499620 0.121118
H14   H     H_    0.218788 0.634966 0.519161 0.120899
H15   H     H_    0.254651 0.792727 0.677495 0.105529
H16   H     H_    0.398562 0.950203 0.859533 0.102539
H17   H     H_    0.481873 0.918454 0.009068 0.105511
H18   H     H_    0.424107 0.728903 0.974063 0.093483
H19   H     H_    0.289480 0.569452 0.789642 0.115581
H20   H     H_    0.008105 0.887550 0.484186 0.119220
H21   H     H_    0.201608 0.322222 0.935534 0.107087
H22   H     H_    0.044580 0.021861 0.422528 0.105035
H23   H     H_    0.327722 0.933565 0.575366 0.124567
H24   H     H_    0.152955 0.852206 0.570676 0.120621
H25   H     H_    0.479910 0.178181 0.644948 0.145185
H26   H     H_    0.471241 0.992382 0.298712 0.116816
H27   H     H_    0.717361 0.181396 0.409674 0.131500
H28   H     H_    0.855369 0.130331 0.396883 0.110031
H29   H     H_    0.860535 0.977062 0.424262 0.093874
H30   H     H_    0.732416 0.879240 0.471561 0.109017
H31   H     H_    0.107634 0.675308 0.380354 0.105153
H32   H     H_    0.603532 0.938164 0.498614 0.110132
H33   H     H_    0.578370 0.563206 0.955355 0.149653
H34   H     H_    0.427998 0.565106 0.949779 0.153529
H35   H     H_    0.352410 0.419096 0.881188 0.152311
H36   H     H_    0.509606 0.317924 0.007834 0.133257
H37   H     H_    0.356406 0.319721 0.991666 0.148058
H38   H     H_    0.679531 0.609255 0.241180 0.167312
H39   H     H_    0.678397 0.677391 0.164461 0.163558
H40   H     H_    0.531076 0.680124 0.161115 0.145125
H41   H     H_    0.376140 0.677895 0.113642 0.092073
H42   H     H_    0.525687 0.609627 0.236310 0.164235
H43   H     H_    0.578614 0.407802 0.152101 0.161684
H44   H     H_    0.419850 0.398309 0.137020 0.166794
H45   H     H_    0.204638 0.149497 0.705377 0.115182
H46   H     H_    0.006700 0.069066 0.596553 0.115425
H47   H     H_    0.882272 0.967250 0.646119 0.121659
H48   H     H_    0.159627 0.042170 0.924349 0.122792
H49   H     H_    0.280269 0.129499 0.865356 0.106265
H50   H     H_    0.965332 0.815655 0.794306 0.154393
H51   H     H_    0.779607 0.988468 0.936925 0.123457
H52   H     H_    0.957041 0.322368 0.191824 0.126992
H53   H     H_    0.649469 0.734305 0.893373 0.150014
H54   H     H_    0.582764 0.731194 0.022189 0.119666
H55   H     H_    0.700774 0.863997 0.217868 0.143523
H56   H     H_    0.890117 0.002542 0.288800 0.103946
H57   H     H_    0.162604 0.829798 0.338058 0.136817
H58   H     H_    0.025687 0.178501 0.844831 0.128386
H59   H     H_    0.645538 0.322362 0.972726 0.068945
N1    N     N_R   0.947080 0.293830 0.002870 -0.039943
N2    N     N_R   0.054040 0.556820 0.847890 -0.043869
N3    N     N_R   0.848290 0.293830 0.791110 -0.046518
N4    N     N_R   0.995680 0.706170 0.053910 -0.055275
N5    N     N_R   0.052920 0.706170 0.997130 -0.056154
N6    N     N_R   0.791050 0.293830 0.847890 -0.044960
N7    N     N_R   0.846330 0.556820 0.053910 -0.034395
N8    N     N_R   0.997640 0.443180 0.791110 -0.039375
N9    N     N_R   0.208950 0.706170 0.152110 -0.039223
N10   N     N_R   0.153670 0.443180 0.946090 -0.038610
N11   N     N_R   0.002360 0.556820 0.208890 -0.046922
N12   N     N_R   0.210070 0.556820 0.002870 -0.038005
N13   N     N_R   0.945960 0.443180 0.152110 -0.045229
N14   N     N_R   0.151710 0.706170 0.208890 -0.042640
N15   N     N_R   0.004320 0.293830 0.946090 -0.040684
N16   N     N_R   0.789930 0.443180 0.997130 -0.030458
Ni1   Ni    Ni4+2 0.869690 0.369690 0.000000 0.218753
Ni2   Ni    Ni4+2 0.130310 0.630310 0.000000 0.212593
Ni3   Ni    Ni4+2 0.000970 0.369690 0.869780 0.213151
Ni4   Ni    Ni4+2 0.999030 0.630310 0.130220 0.218486
C87   C     C_3   0.132989 0.837775 0.944346 -1.066578
H60   H     H_    0.113338 0.812945 0.859202 0.247557
H61   H     H_    0.154344 0.924928 0.989438 0.258669
H62   H     H_    0.206124 0.832626 0.984328 0.254085
C88   C     C_2   0.805493 0.455929 0.331980 0.492331
H63   H     H_    0.750388 0.477872 0.290137 -0.012649
O1    O     O_2   0.876383 0.523692 0.426309 -0.587037
C89   C     C_2   0.225305 0.133967 0.422383 0.519199
H64   H     H_    0.177307 0.174511 0.421371 -0.009988
O2    O     O_2   0.295151 0.160230 0.397180 -0.568700
C90   C     C_2   0.495981 0.388775 0.854021 0.506268
H65   H     H_    0.443586 0.306791 0.835491 -0.009998
O3    O     O_2   0.527239 0.398755 0.790841 -0.583299
C91   C     C_3   0.990349 0.039893 0.174590 -1.026359
H66   H     H_    0.028032 0.097896 0.262521 0.232282
H67   H     H_    0.042348 0.004349 0.161552 0.269693
H68   H     H_    0.986623 0.088401 0.133182 0.260339

loop_
_geom_bond_atom_site_label_1
_geom_bond_atom_site_label_2
_ccdc_geom_bond_type
C59   H35   S    
C81   H54   S    
C66   C68   A    
C63   C65   S    
C38   H22   S    
C58   C62   S    
C59   H34   S    
C22   H12   S    
C23   N10   A    
N10   N12   A    
C73   C74   A    
C3    C23   A    
C35   C36   A    
C19   C88   S    
C39   C89   S    
C2    C12   A    
C80   C85   A    
C34   N11   A    
N7    Ni4   S    
C20   C30   S    
C76   H51   S    
N5    Ni2   S    
N1    Ni1   S    
C26   C27   A    
C51   H27   S    
C61   H38   S    
C18   C24   A    
N15   Ni3   S    
C28   C29   A    
C45   H41   S    
C24   H8    S    
C71   H49   S    
C38   C39   A    
C11   C14   A    
C40   C50   S    
N1    N15   A    
C88   H63   S    
C7    H3    S    
C1    C86   A    
C6    H2    S    
C60   C62   S    
C18   C19   A    
C41   C42   A    
C1    H1    S    
C49   C50   A    
C56   N13   A    
C6    C15   A    
C54   C55   A    
C11   H6    S    
C75   C85   S    
C66   C72   A    
C83   C84   A    
C68   C69   A    
C54   H30   S    
N3    N6    A    
C70   C71   A    
C51   C57   A    
N12   Ni2   S    
N7    N16   A    
C91   H68   S    
C28   H14   S    
C34   H31   S    
C90   O3    D    
C67   H57   S    
C41   H23   S    
C21   C22   A    
C4    C56   A    
C87   H61   S    
C18   H9    S    
C58   C90   S    
C1    N1    A    
C61   C62   S    
C82   H55   S    
C25   H13   S    
C44   C46   A    
N16   Ni1   S    
C66   H46   S    
C89   O2    D    
C4    C34   A    
C9    N5    A    
C5    H59   S    
C74   C75   A    
N8    Ni3   S    
C51   C52   A    
N3    Ni3   S    
C65   H42   S    
N9    Ni2   S    
C45   N12   A    
C76   C77   A    
C35   H18   S    
C16   C46   S    
C39   C40   A    
C15   C26   S    
C25   C26   A    
C89   H64   S    
C3    C45   A    
C81   C82   A    
C31   C37   A    
C61   H39   S    
C13   H7    S    
C43   H20   S    
C5    N16   A    
C84   C91   S    
C75   C76   A    
C29   C30   A    
C2    C49   S    
C78   H58   S    
C10   N6    A    
C47   C57   S    
C56   H52   S    
C47   C48   A    
C73   H50   S    
N6    Ni1   S    
C23   H21   S    
C73   C79   A    
C77   C79   A    
N4    Ni4   S    
C84   C85   A    
C60   H36   S    
C13   N8    A    
C5    C14   A    
C91   H66   S    
N2    Ni2   S    
C9    C17   A    
C90   H65   S    
C48   H26   S    
C64   H44   S    
C10   H5    S    
C2    C67   A    
C52   H28   S    
C55   C57   A    
C13   C15   A    
C87   H60   S    
C32   H16   S    
C69   C79   S    
C8    H4    S    
C42   C43   A    
C80   H53   S    
C31   H15   S    
C52   C53   A    
C72   H45   S    
C9    C87   S    
C7    N3    A    
C44   C50   A    
C25   C30   A    
C46   C47   A    
C68   H47   S    
C36   H19   S    
C33   H17   S    
C31   C32   A    
C7    C16   A    
C4    C29   S    
C12   N9    A    
C80   C81   A    
C60   H43   S    
C77   C86   S    
C83   H56   S    
C67   N14   A    
C53   C54   A    
C3    C63   S    
N10   Ni3   S    
C64   H37   S    
C59   C63   S    
C8    C17   A    
C60   C64   S    
C32   C33   A    
C19   C20   A    
N11   N13   A    
C8    N4    A    
C58   C59   S    
C38   C43   A    
C10   C16   A    
N4    N5    A    
C65   H40   S    
C6    N2    A    
C78   C86   A    
C17   C74   S    
C88   O1    D    
N11   Ni4   S    
C27   C37   S    
C48   C49   A    
C78   N15   A    
C58   H33   S    
C33   C35   A    
C22   C24   A    
C61   C65   S    
C42   H24   S    
C69   C70   A    
N2    N8    A    
C21   H11   S    
N13   Ni1   S    
C63   C64   S    
C44   H25   S    
N14   Ni4   S    
C11   N7    A    
N9    N14   A    
C71   C72   A    
C20   C21   A    
C87   H62   S    
C36   C37   A    
C82   C83   A    
C27   C28   A    
C70   H48   S    
C12   H10   S    
C40   C41   A    
C53   H29   S    
C91   H67   S    
C55   H32   S    
C14   C62   S    
