data_str_m2_o4_o14_f0_pcu.sym.159
_audit_creation_date              2013-03-05T16:31:07-0500
_audit_creation_method            fapswitch 2.2
_symmetry_space_group_name_H-M    P1
_symmetry_Int_Tables_number       1
_space_group_crystal_system       triclinic
_cell_length_a                    10.839877
_cell_length_b                    10.76167
_cell_length_c                    9.658902
_cell_angle_alpha                 89.320468
_cell_angle_beta                  87.418133
_cell_angle_gamma                 91.483435
_cell_volume                      1125.14416672

loop_
_atom_site_label
_atom_site_type_symbol
_atom_site_description
_atom_site_fract_x
_atom_site_fract_y
_atom_site_fract_z
_atom_type_partial_charge
O1    O     O_R   0.500000 0.319640 0.618810 -0.521973
O2    O     O_R   0.500010 0.319680 0.381230 -0.541530
C1    C     C_R   0.497595 0.262886 0.500580 0.802741
O3    O     O_R   0.319640 0.499980 0.618820 -0.523022
O4    O     O_R   0.319650 0.500020 0.381230 -0.575483
C2    C     C_R   0.262429 0.490922 0.504535 0.810215
Cu1   Cu    Cu3+1 0.499990 0.499980 0.640670 1.093566
Cu2   Cu    Cu3+1 0.500010 0.500020 0.359330 1.063230
O5    O     O_R   0.499990 0.680320 0.618770 -0.537863
O6    O     O_R   0.500000 0.680360 0.381190 -0.570100
O7    O     O_R   0.680350 0.499980 0.618770 -0.556150
O8    O     O_R   0.680360 0.500020 0.381180 -0.532462
C3    C     C_R   0.498235 0.737294 0.498502 0.852931
C4    C     C_R   0.737388 0.498016 0.496678 0.783861
H1    H     H_    0.130271 0.629104 0.354568 0.190835
C5    C     C_R   0.096348 0.324266 0.707733 0.160818
C6    C     C_R   0.022695 0.222145 0.759201 0.212740
C7    C     C_R   0.903041 0.204273 0.714885 0.339013
C8    C     C_R   0.852507 0.293261 0.630942 -0.249126
H2    H     H_    0.757165 0.279834 0.605221 0.183376
C9    C     C_R   0.924539 0.394381 0.575225 -0.018797
C10   C     C_R   0.052275 0.403151 0.600780 -0.038394
C11   C     C_R   0.127400 0.487949 0.514842 -0.085324
C12   C     C_R   0.073121 0.566427 0.420631 -0.165859
C13   C     C_R   0.946816 0.566540 0.408021 0.307481
C14   C     C_R   0.871181 0.484248 0.490037 -0.144866
C15   C     C_R   0.565275 0.067888 0.402630 0.107264
C16   C     C_R   0.491044 0.129508 0.498680 -0.100149
C17   C     C_R   0.397140 0.061980 0.573230 -0.109048
H3    H     H_    0.327496 0.109705 0.634242 0.215331
C18   C     C_R   0.393227 0.931772 0.567251 0.419590
C19   C     C_R   0.487938 0.870689 0.491975 -0.188957
C20   C     C_R   0.563219 0.940540 0.396926 -0.010343
C21   C     C_3   0.699291 0.938871 0.360008 0.179684
C22   C     C_3   0.700380 0.080169 0.370192 -0.463548
H4    H     H_    0.753869 0.890249 0.437918 0.149684
H5    H     H_    0.752557 0.113743 0.458845 0.184787
H6    H     H_    0.720531 0.132159 0.271288 0.259126
C23   C     C_R   0.507953 0.608706 0.072472 0.228517
N1    N     N_R   0.500790 0.500930 0.147930 -0.258627
C24   C     C_R   0.492745 0.392878 0.073594 0.400113
C25   C     C_R   0.514009 0.393856 0.929054 0.478126
N2    N     N_R   0.500790 0.500890 0.852020 -0.267102
C26   C     C_R   0.508501 0.609197 0.925750 0.130833
C27   C     C_3   0.423471 0.715855 0.924051 0.237819
C28   C     C_3   0.415244 0.708743 0.081099 -0.428316
H7    H     H_    0.334975 0.694684 0.874613 0.197270
H8    H     H_    0.449592 0.793669 0.132789 0.266048
H9    H     H_    0.323607 0.673509 0.123406 0.189506
N3    N     N_R   0.724816 0.898141 0.217909 0.207769
O9    O     O_R   0.680333 0.791738 0.178825 -0.287868
O10   O     O_R   0.811217 0.953852 0.140348 -0.183171
Cl1   Cl    Cl    0.418079 0.255748 0.139885 -0.429773
Cl2   Cl    Cl    0.576976 0.256715 0.862704 -0.416434
Cl3   Cl    Cl    0.504301 0.855311 0.866141 -0.393790
N4    N     N_R   0.197551 0.362393 0.788474 0.150039
O11   O     O_R   0.188957 0.463065 0.861264 -0.324477
O12   O     O_R   0.284976 0.285751 0.812411 -0.299276
N5    N     N_R   0.065136 0.143323 0.866818 0.206661
O13   O     O_R   0.008039 0.140268 0.988244 -0.218835
O14   O     O_R   0.152078 0.065115 0.839587 -0.226542
Cl4   Cl    Cl    0.813223 0.071827 0.767349 -0.393423
N6    N     N_R   0.898291 0.648384 0.307378 0.127596
O15   O     O_R   0.847352 0.600627 0.200085 -0.260031
O16   O     O_R   0.940330 0.762700 0.298953 -0.299708
Cl5   Cl    Cl    0.266668 0.849163 0.647698 -0.516203

loop_
_geom_bond_atom_site_label_1
_geom_bond_atom_site_label_2
_geom_bond_distance
_ccdc_geom_bond_type
O1    C1    1.302394 A    
O4    Cu2   1.956994 S    
N3    O10   1.301891 A    
C9    C14   1.414158 A    
N6    O16   1.301153 A    
N1    C24   1.376763 A    
C23   C26   1.416866 A    
Cu1   N2    2.041958 S    
C18   Cl5   1.760851 S    
C24   C25   1.404590 A    
C3    C19   1.443615 S    
C8    H2    1.080268 S    
Cu2   O8    1.975761 S    
C11   C12   1.394007 A    
N3    O9    1.297800 A    
C19   C20   1.399359 A    
C4    C14   1.460277 S    
C5    N4    1.428772 S    
C6    C7    1.393412 A    
O8    C4    1.299763 A    
Cu1   Cu2   2.717421 S    
C17   C18   1.402756 A    
O1    Cu1   1.954702 S    
C9    C10   1.418329 A    
C15   C20   1.371882 A    
Cu1   O7    1.956994 S    
C28   H9    1.112527 S    
C24   Cl1   1.764078 S    
C17   H3    1.080818 S    
C6    N5    1.433193 S    
C23   C28   1.492135 S    
C2    C11   1.462101 S    
Cu2   O6    1.954702 S    
H1    C12   1.085566 S    
C8    C9    1.409883 A    
N4    O12   1.299046 A    
C20   C21   1.502418 S    
C21   H4    1.112164 S    
O3    Cu1   1.975759 S    
N2    C26   1.375748 A    
O4    C2    1.319206 A    
C21   C22   1.524714 S    
O7    C4    1.307283 A    
C28   H8    1.110471 S    
N5    O14   1.299895 A    
C21   N3    1.462481 S    
C25   N2    1.377957 A    
N6    O15   1.300967 A    
C16   C17   1.402143 A    
Cu1   O5    1.949758 S    
N5    O13   1.300895 A    
C22   H6    1.111551 S    
C12   C13   1.380021 A    
C27   Cl3   1.789059 S    
C1    C16   1.435658 S    
O3    C2    1.293723 A    
C7    C8    1.386837 A    
C13   N6    1.430801 S    
C27   H7    1.110264 S    
O2    Cu2   1.949759 S    
C23   N1    1.361137 A    
N4    O11   1.301584 A    
O5    C3    1.308220 A    
C10   C11   1.437909 A    
C7    Cl4   1.761497 S    
O2    C1    1.297270 A    
Cu2   N1    2.041434 S    
C15   C22   1.485971 S    
C13   C14   1.404024 A    
C27   C28   1.516431 S    
C25   Cl2   1.757831 S    
C26   C27   1.490987 S    
C18   C19   1.412025 A    
C22   H5    1.106375 S    
C5    C10   1.435548 A    
C5    C6    1.413574 A    
C15   C16   1.386678 A    
O6    C3    1.294153 A    
