data_str_m2_o9_o18_f0_pcu.sym.32
_audit_creation_date              2012-10-26T21:10:48-0400
_audit_creation_method            fapswitch 2.2
_symmetry_space_group_name_H-M    P1
_symmetry_Int_Tables_number       1
_space_group_crystal_system       triclinic
_cell_length_a                    10.838386
_cell_length_b                    14.67611
_cell_length_c                    14.72608
_cell_angle_alpha                 64.754716
_cell_angle_beta                  103.448218
_cell_angle_gamma                 102.843226
_cell_volume                      2040.31915659

loop_
_atom_site_label
_atom_site_type_symbol
_atom_type_description
_atom_site_fract_x
_atom_site_fract_y
_atom_site_fract_z
_atom_type_partial_charge
C1    C     C_R   0.475357 0.119938 0.312319 0.548704
C2    C     C_R   0.694238 0.775144 0.957024 0.028687
C3    C     C_R   0.345902 0.158041 0.139795 -0.131585
C4    C     C_R   0.652517 0.843866 0.859056 -0.053766
C5    C     C_R   0.499515 0.289381 0.175088 -0.110520
C6    C     C_R   0.489874 0.713869 0.829755 -0.117982
C7    C     C_R   0.447873 0.365369 0.085582 0.000364
C8    C     C_R   0.520183 0.644444 0.930505 0.031086
C9    C     C_R   0.340947 0.335690 0.021500 0.082956
C10   C     C_R   0.623099 0.675531 0.996757 0.001470
C11   C     C_R   0.500019 0.469990 0.059235 0.003190
C12   C     C_R   0.524601 0.880154 0.687687 0.539980
C13   C     C_R   0.454228 0.543091 0.964311 0.024753
C14   C     C_R   0.339128 0.514114 0.908721 -0.158136
C15   C     C_R   0.591491 0.504360 0.127285 -0.098938
C16   C     C_R   0.262763 0.999921 0.501412 0.545331
C17   C     C_R   0.737178 0.000397 0.498273 0.545006
C18   C     C_R   0.278416 0.413627 0.939451 0.030209
C19   C     C_R   0.649656 0.605557 0.099256 -0.002141
C20   C     C_R   0.715956 0.284808 0.667248 -0.126986
C21   C     C_R   0.283990 0.715100 0.332846 -0.130557
C22   C     C_R   0.681359 0.202793 0.638408 0.050349
C23   C     C_R   0.870590 0.000260 0.496700 -0.004184
C24   C     C_R   0.318425 0.797065 0.361772 0.048604
C25   C     C_R   0.518927 0.285635 0.508707 0.046541
C26   C     C_R   0.481341 0.714490 0.491097 0.042761
C27   C     C_R   0.549570 0.371977 0.534032 0.002183
C28   C     C_R   0.450925 0.628228 0.465631 -0.006747
C29   C     C_R   0.649990 0.369279 0.615854 0.035789
C30   C     C_R   0.350407 0.630853 0.383904 0.031288
C31   C     C_R   0.483319 0.459136 0.482958 0.018864
C32   C     C_R   0.517416 0.541184 0.516525 0.017061
C33   C     C_R   0.616716 0.533418 0.599713 -0.102918
C34   C     C_R   0.129365 0.001046 0.502261 -0.003827
C35   C     C_R   0.384123 0.466944 0.399697 -0.104892
C36   C     C_R   0.682305 0.449742 0.647348 -0.082888
C37   C     C_R   0.318455 0.550569 0.352145 -0.084162
C38   C     C_R   0.356009 0.081839 0.764861 0.040089
C39   C     C_R   0.645285 0.937699 0.225482 0.055437
C40   C     C_R   0.263213 0.038488 0.704953 -0.051763
C41   C     C_R   0.740945 0.975513 0.288297 -0.054033
C42   C     C_R   0.186256 0.098268 0.618549 -0.013651
C43   C     C_R   0.812812 0.910568 0.374532 -0.013065
C44   C     C_R   0.198734 0.204019 0.592730 0.022429
C45   C     C_R   0.906854 0.955181 0.440883 -0.048237
C46   C     C_R   0.792222 0.805149 0.397310 0.030666
C47   C     C_R   0.288104 0.246877 0.654620 -0.092491
C48   C     C_R   0.698065 0.767375 0.333794 -0.120942
C49   C     C_R   0.366987 0.187658 0.740239 -0.004625
C50   C     C_R   0.624238 0.831784 0.248311 -0.028399
C51   C     C_R   0.963665 0.045613 0.553909 -0.148578
C52   C     C_R   0.036148 0.955948 0.444744 -0.148581
C53   C     C_2   0.455643 0.240839 0.801435 0.245228
C54   C     C_2   0.529667 0.783729 0.185274 0.180929
C55   C     C_2   0.216471 0.187320 0.972363 0.317671
C56   C     C_R   0.093017 0.048022 0.556488 -0.048981
C57   C     C_2   0.822541 0.805630 0.007097 0.202517
C58   C     C_2   0.443052 0.015431 0.848482 0.282232
C59   C     C_2   0.565742 0.009950 0.140693 0.287041
C60   C     C_2   0.121276 0.270826 0.500593 0.218635
C61   C     C_2   0.866095 0.733555 0.487903 0.214114
C62   C     C_2   0.142884 0.398189 0.892304 0.280084
C63   C     C_2   0.727895 0.635972 0.181962 0.187559
C64   C     C_R   0.442467 0.188643 0.206085 0.015944
C65   C     C_R   0.552545 0.812984 0.795133 -0.000556
C66   C     C_R   0.299445 0.229454 0.044983 0.059757
Cu1   Cu    Cu3+1 0.466270 0.918260 0.475690 0.934385
Cu2   Cu    Cu3+1 0.533730 0.081740 0.524310 0.942598
H1    H     H_    0.287628 0.570620 0.845940 0.095663
H2    H     H_    0.207008 0.718091 0.270115 0.124901
H3    H     H_    0.646741 0.591070 0.630262 0.101922
H4    H     H_    0.354294 0.409400 0.368996 0.104370
H5    H     H_    0.253391 0.957666 0.723164 0.150942
H6    H     H_    0.757135 0.056137 0.272383 0.152623
H7    H     H_    0.297209 0.327799 0.635626 0.158415
H8    H     H_    0.681362 0.686435 0.351306 0.173098
H9    H     H_    0.935796 0.079090 0.597775 0.145551
H10   H     H_    0.063879 0.922598 0.400710 0.140767
H11   H     H_    0.420526 0.691537 0.774743 0.121838
H12   H     H_    0.612498 0.454886 0.206164 0.157957
H13   H     H_    0.583550 0.306049 0.224306 0.129399
H14   H     H_    0.477430 0.323197 0.768389 0.112976
H15   H     H_    0.497809 0.702460 0.217617 0.112746
H16   H     H_    0.161205 0.112197 0.000794 0.122306
H17   H     H_    0.884789 0.749061 0.055950 0.119206
H18   H     H_    0.535732 0.046802 0.878000 0.175702
H19   H     H_    0.470876 0.983956 0.109229 0.162917
H20   H     H_    0.065917 0.242736 0.443990 0.124198
H21   H     H_    0.923964 0.757860 0.546453 0.112822
H22   H     H_    0.111685 0.446867 0.813947 0.116011
H23   H     H_    0.758336 0.447478 0.710562 0.139089
H24   H     H_    0.740088 0.713768 0.174786 0.132022
H25   H     H_    0.706118 0.919326 0.828631 0.153390
H26   H     H_    0.307200 0.078141 0.161836 0.095055
H27   H     H_    0.242506 0.552867 0.288878 0.140206
H28   H     H_    0.558218 0.720579 0.550195 0.122275
H29   H     H_    0.442142 0.279610 0.449525 0.121259
H30   H     H_    0.268374 0.862762 0.321795 0.124580
H31   H     H_    0.731161 0.136971 0.678551 0.132049
H32   H     H_    0.792822 0.281745 0.730077 0.142501
N1    N     N_R   0.584450 0.204570 0.560790 -0.238318
N2    N     N_R   0.415550 0.795430 0.439210 -0.236697
O1    O     O_R   0.455540 0.022090 0.338120 -0.510098
O2    O     O_2   0.491806 0.831707 0.095840 -0.469713
O3    O     O_2   0.214372 0.232741 0.880799 -0.493130
O4    O     O_2   0.861394 0.894771 0.992497 -0.494333
O5    O     O_2   0.412975 0.923239 0.884143 -0.470834
O6    O     O_2   0.604829 0.100943 0.105972 -0.466635
O7    O     O_2   0.118071 0.358517 0.486688 -0.484410
O8    O     O_2   0.863994 0.646224 0.498018 -0.480365
O9    O     O_2   0.063335 0.335603 0.942035 -0.486273
O10   O     O_2   0.778202 0.573798 0.260364 -0.478920
O11   O     O_R   0.544460 0.977910 0.661880 -0.509129
O12   O     O_R   0.512510 0.160150 0.379180 -0.506273
O13   O     O_R   0.487490 0.839850 0.620820 -0.508989
O14   O     O_R   0.291160 0.930970 0.479480 -0.505478
O15   O     O_R   0.708840 0.069030 0.520520 -0.503497
O16   O     O_R   0.348130 0.069020 0.520540 -0.504063
O17   O     O_R   0.651870 0.930980 0.479460 -0.503093
O18   O     O_2   0.499906 0.195411 0.890063 -0.466874

loop_
_geom_bond_atom_site_label_1
_geom_bond_atom_site_label_2
_ccdc_geom_bond_type
C34   C56   A    
C8    C13   A    
C23   C45   A    
C27   C29   A    
C14   C18   A    
C60   H20   S    
C53   O18   D    
Cu1   O1    S    
C39   C41   A    
C38   C49   A    
C3    C64   A    
C15   C19   A    
C29   C36   A    
C50   C54   S    
C22   N1    A    
C55   O3    D    
C24   H30   S    
C54   O2    D    
C35   C37   A    
C51   C56   A    
C4    C65   A    
C16   O14   A    
C33   C36   A    
C40   H5    S    
C37   H27   S    
C58   O5    D    
C63   O10   D    
C48   H8    S    
C9    C66   A    
Cu1   O13   S    
C60   O7    D    
Cu2   O16   S    
C41   H6    S    
C38   C58   S    
C11   C15   A    
C6    C65   A    
C62   O9    D    
C15   H12   S    
C19   C63   S    
C63   H24   S    
C1    O1    A    
C44   C47   A    
C17   O15   A    
Cu2   O11   S    
C12   O13   A    
C16   C34   S    
C40   C42   A    
C57   O4    D    
C13   C14   A    
C41   C43   A    
C42   C44   A    
C52   H10   S    
C61   O8    D    
C58   H18   S    
C54   H15   S    
C61   H21   S    
C7    C11   A    
C20   C29   A    
C26   H28   S    
C46   C48   A    
C2    C57   S    
C46   C61   S    
C27   C31   A    
Cu1   Cu2   S    
C28   C32   A    
Cu2   N1    S    
C47   C49   A    
C5    C7    A    
C17   O17   A    
C18   C62   S    
C6    C8    A    
C45   C52   A    
C30   C37   A    
C53   H14   S    
C2    C4    A    
Cu1   O14   S    
C51   H9    S    
C16   O16   A    
Cu2   O15   S    
C5    H13   S    
C23   C51   A    
C31   C32   A    
C20   H32   S    
C10   C19   A    
C39   C59   S    
C17   C23   S    
C42   C56   S    
C43   C45   S    
C36   H23   S    
C25   H29   S    
C20   C22   A    
C35   H4    S    
C14   H1    S    
C31   C35   A    
C3    C66   A    
C1    O12   A    
C2    C10   A    
C1    C64   S    
C55   C66   S    
C12   O11   A    
C12   C65   S    
C7    C9    A    
C22   H31   S    
C26   C28   A    
C25   C27   A    
C21   C30   A    
C34   C52   A    
C59   O6    D    
C21   H2    S    
C32   C33   A    
C28   C30   A    
C47   H7    S    
C26   N2    A    
C38   C40   A    
C11   C13   A    
C25   N1    A    
C6    H11   S    
C44   C60   S    
C49   C53   S    
C62   H22   S    
C48   C50   A    
C57   H17   S    
C3    H26   S    
C24   N2    A    
C43   C46   A    
C59   H19   S    
C33   H3    S    
C4    H25   S    
C9    C18   A    
C39   C50   A    
C5    C64   A    
C8    C10   A    
C21   C24   A    
C55   H16   S    
Cu1   O17   S    
Cu1   N2    S    
Cu2   O12   S    
