data_str_m2_o10_o29_f0_pcu.sym.71
_audit_creation_date              2013-03-05T15:42:03-0500
_audit_creation_method            fapswitch 2.2
_symmetry_space_group_name_H-M    P1
_symmetry_Int_Tables_number       1
_space_group_crystal_system       triclinic
_cell_length_a                    27.746639
_cell_length_b                    8.663608
_cell_length_c                    7.505054
_cell_angle_alpha                 103.582635
_cell_angle_beta                  93.960435
_cell_angle_gamma                 92.79553
_cell_volume                      1745.53153247

loop_
_atom_site_label
_atom_site_type_symbol
_atom_site_description
_atom_site_fract_x
_atom_site_fract_y
_atom_site_fract_z
_atom_type_partial_charge
O1    O     O_R   0.503500 0.286120 0.619780 -0.560783
O2    O     O_R   0.496500 0.713880 0.380220 -0.560872
O3    O     O_R   0.494410 0.256780 0.308360 -0.584591
O4    O     O_R   0.505590 0.743220 0.691640 -0.584716
C1    C     C_R   0.498719 0.199718 0.452804 0.842152
C2    C     C_R   0.501314 0.800287 0.547193 0.842465
O5    O     O_R   0.434810 0.514700 0.655690 -0.545976
O6    O     O_R   0.565190 0.485300 0.344310 -0.545957
O7    O     O_R   0.425720 0.485350 0.344280 -0.561875
O8    O     O_R   0.574280 0.514650 0.655720 -0.562087
C3    C     C_R   0.407735 0.495757 0.501977 0.780114
C4    C     C_R   0.592262 0.504390 0.498062 0.780048
Cu1   Cu    Cu3+1 0.505380 0.517380 0.684380 1.089150
Cu2   Cu    Cu3+1 0.494620 0.482620 0.315620 1.089201
C5    C     C_R   0.177094 0.378760 0.572012 0.541742
C6    C     C_R   0.822962 0.621773 0.429929 0.541738
O9    O     O_2   0.200255 0.258161 0.617329 -0.527095
O10   O     O_2   0.799801 0.742290 0.384388 -0.527145
N1    N     N_R   0.203102 0.502767 0.531916 -0.461840
N2    N     N_R   0.796946 0.497735 0.469932 -0.461811
C7    C     C_R   0.180737 0.628511 0.489949 0.544366
C8    C     C_R   0.819315 0.372084 0.512129 0.544400
C9    C     C_R   0.285673 0.611672 0.649668 -0.095636
C10   C     C_R   0.714436 0.388540 0.351568 -0.095769
C11   C     C_R   0.335537 0.608120 0.640767 -0.204693
C12   C     C_R   0.664553 0.392070 0.359914 -0.204890
C13   C     C_R   0.323819 0.371285 0.386422 0.106887
C14   C     C_R   0.676104 0.629206 0.613902 0.107322
C15   C     C_R   0.273680 0.378231 0.395826 -0.117063
C16   C     C_R   0.726260 0.622242 0.605143 -0.116784
C17   C     C_R   0.254586 0.497642 0.526275 0.305970
C18   C     C_R   0.745448 0.502711 0.475131 0.305870
C19   C     C_R   0.102497 0.503475 0.521242 -0.042327
C20   C     C_R   0.897563 0.497234 0.481144 -0.042334
C21   C     C_R   0.126407 0.376337 0.566237 -0.020295
C22   C     C_R   0.873652 0.624310 0.435992 -0.020277
C23   C     C_R   0.099396 0.249134 0.603225 -0.154392
C24   C     C_R   0.900666 0.751550 0.399093 -0.154359
C25   C     C_R   0.130147 0.631561 0.484836 -0.019493
C26   C     C_R   0.869909 0.369134 0.517508 -0.019499
C27   C     C_R   0.355035 0.490540 0.508475 -0.017025
C28   C     C_R   0.644965 0.509775 0.491753 -0.017046
H1    H     H_    0.249070 0.289592 0.302824 0.152293
H2    H     H_    0.750801 0.711029 0.698228 0.152404
H3    H     H_    0.116937 0.150105 0.638750 0.185227
H4    H     H_    0.883126 0.850540 0.363478 0.185272
C29   C     C_R   0.972415 0.369076 0.536665 0.044125
C30   C     C_R   0.027647 0.631724 0.465948 0.044139
C31   C     C_R   0.976237 0.629695 0.454776 0.045149
C32   C     C_R   0.023825 0.371089 0.547796 0.045151
C33   C     C_R   0.948972 0.498602 0.490732 0.068794
C34   C     C_R   0.051090 0.502168 0.511807 0.068794
C35   C     C_R   0.943292 0.241346 0.569686 -0.215245
C36   C     C_R   0.056770 0.759478 0.432982 -0.215267
C37   C     C_R   0.893196 0.241909 0.560598 -0.147233
C38   C     C_R   0.106864 0.758861 0.441935 -0.147212
O11   O     O_2   0.792732 0.251650 0.551797 -0.528173
O12   O     O_2   0.207313 0.748927 0.450230 -0.528080
C39   C     C_R   0.049243 0.246211 0.594360 -0.213484
C40   C     C_R   0.950819 0.754543 0.408137 -0.213493
H5    H     H_    0.641126 0.301092 0.264869 0.175669
H6    H     H_    0.359024 0.698966 0.735741 0.175725
H7    H     H_    0.729063 0.296501 0.249756 0.163319
H8    H     H_    0.271124 0.703649 0.751789 0.163251
H9    H     H_    0.872734 0.141559 0.588282 0.191589
H10   H     H_    0.127327 0.859218 0.414256 0.191621
H11   H     H_    0.957770 0.138007 0.603595 0.137789
H12   H     H_    0.042296 0.862871 0.399209 0.137772
H13   H     H_    0.031736 0.143302 0.625364 0.136168
H14   H     H_    0.968329 0.857463 0.377153 0.136190
C41   C     C_2   0.497912 0.031123 0.426941 -0.329579
C42   C     C_2   0.502146 0.968884 0.573053 -0.329424
H15   H     H_    0.493704 0.958051 0.286882 0.203551
H16   H     H_    0.506355 0.041956 0.713112 0.203506
N3    N     N_2   0.486510 0.456430 0.038510 0.028475
N4    N     N_2   0.513490 0.543570 0.961490 0.028409
C43   C     C_3   0.342353 0.231815 0.252230 -0.389107
C44   C     C_3   0.363941 0.113260 0.351965 -0.749916
H17   H     H_    0.394455 0.170741 0.452582 0.247198
H18   H     H_    0.335818 0.064194 0.425741 0.272094
H19   H     H_    0.377640 0.013572 0.250510 0.245355
H20   H     H_    0.312409 0.167190 0.152401 0.213040
H21   H     H_    0.369304 0.272943 0.168550 0.268819
C45   C     C_3   0.657470 0.769045 0.747214 -0.389391
C46   C     C_3   0.636362 0.887694 0.646530 -0.751121
H22   H     H_    0.664834 0.936599 0.574056 0.272456
H23   H     H_    0.606079 0.830351 0.544642 0.248046
H24   H     H_    0.622476 0.987521 0.747164 0.245429
H25   H     H_    0.630194 0.728433 0.830053 0.268433
H26   H     H_    0.687276 0.833333 0.847954 0.213221
N5    N     N_R   0.440090 0.416625 0.954801 0.254561
O13   O     O_R   0.427435 0.268841 0.874434 -0.393524
O14   O     O_R   0.406657 0.516550 0.994180 -0.364323
N6    N     N_R   0.559907 0.583406 0.045212 0.254523
O15   O     O_R   0.572555 0.731203 0.125545 -0.393891
O16   O     O_R   0.593349 0.483511 0.005827 -0.363889

loop_
_geom_bond_atom_site_label_1
_geom_bond_atom_site_label_2
_geom_bond_distance
_ccdc_geom_bond_type
C14   C45   1.516353 S    
O7    Cu2   1.939178 S    
N1    C17   1.434587 S    
C8    O11   1.350000 S    
C43   C44   1.527495 S    
C19   C34   1.422589 A    
C5    N1    1.368127 A    
C20   C33   1.422595 A    
C19   C25   1.408185 A    
C31   C40   1.417030 A    
O1    C1    1.294258 A    
C32   C39   1.417038 A    
C6    N2    1.368147 A    
C21   C23   1.394673 A    
C12   H5    1.083742 S    
C10   C12   1.391323 A    
C36   H12   1.074979 S    
C30   C34   1.422360 A    
C46   H22   1.111051 S    
C44   H18   1.110895 S    
C13   C15   1.401339 A    
C43   H21   1.106614 S    
C14   C28   1.419636 A    
O4    Cu1   1.944225 S    
C4    C28   1.465174 S    
N4    N6    1.384079 S    
C31   C33   1.422454 A    
C32   C34   1.422448 A    
N3    N5    1.384072 S    
C29   C35   1.417116 A    
C46   H23   1.108901 S    
Cu1   Cu2   2.706448 S    
C15   H1    1.083714 S    
C16   H2    1.083605 S    
O2    C2    1.294260 A    
C45   H26   1.112078 S    
C35   H11   1.075014 S    
C5    C21   1.403034 A    
C37   H9    1.083659 S    
O5    C3    1.304398 A    
C29   C32   1.422144 A    
C35   C37   1.387269 A    
C36   C38   1.387258 A    
C45   C46   1.527442 S    
O4    C2    1.293616 A    
C11   C27   1.403224 A    
N5    O13   1.300214 A    
C41   H15   1.087475 S    
C44   H17   1.108584 S    
C29   C33   1.422359 A    
C13   C43   1.516360 S    
C2    C42   1.426417 S    
C9    C17   1.398003 A    
C30   C36   1.417112 A    
N3    N4    1.293869 D    
C10   C18   1.398098 A    
N5    O14   1.301301 A    
C13   C27   1.419618 A    
C25   C38   1.394596 A    
C7    C25   1.403273 A    
Cu1   N4    2.033742 S    
C40   H14   1.075129 S    
O6    C4    1.304465 A    
C26   C37   1.394631 A    
C8    C26   1.403268 A    
C6    O10   1.350079 S    
N6    O16   1.301316 A    
O7    C3    1.301429 A    
C23   C39   1.387263 A    
O3    Cu2   1.944225 S    
O8    C4    1.301298 A    
C39   H13   1.075091 S    
C24   C40   1.387243 A    
C42   H16   1.087477 S    
C9    H8    1.082860 S    
N2    C8    1.367934 A    
C10   H7    1.082875 S    
C20   C26   1.408202 A    
O1    Cu1   1.944746 S    
C45   H25   1.106746 S    
C23   H3    1.083634 S    
C12   C28   1.403119 A    
N2    C18   1.434597 S    
C46   H24   1.110296 S    
C5    O9    1.350016 S    
C30   C31   1.422130 A    
O6    Cu2   1.953448 S    
N1    C7    1.367913 A    
O3    C1    1.293619 A    
O8    Cu1   1.939181 S    
Cu2   N3    2.033743 S    
C14   C16   1.401298 A    
C7    O12   1.349956 S    
C15   C17   1.399582 A    
C6    C22   1.402974 A    
C16   C18   1.399596 A    
C44   H19   1.110528 S    
C43   H20   1.112069 S    
C38   H10   1.083708 S    
C22   C24   1.394692 A    
C19   C21   1.408003 A    
C3    C27   1.465291 S    
C20   C22   1.408012 A    
C11   H6    1.083748 S    
C9    C11   1.391258 A    
N6    O15   1.300210 A    
O2    Cu2   1.944747 S    
C24   H4    1.083598 S    
O5    Cu1   1.953448 S    
C41   C42   1.331596 D    
C1    C41   1.426423 S    
