data_str_m4_o22_o22_f0_acs.sym.84
_audit_creation_date              2012-12-11T15:07:09-0500
_audit_creation_method            fapswitch 2.2
_symmetry_space_group_name_H-M    P1
_symmetry_Int_Tables_number       1
_space_group_crystal_system       monoclinic
_cell_length_a                    19.644992
_cell_length_b                    11.313377
_cell_length_c                    18.706233
_cell_angle_alpha                 90.0
_cell_angle_beta                  90.159081
_cell_angle_gamma                 90.0
_cell_volume                      4157.46671928

loop_
_atom_site_label
_atom_site_type_symbol
_atom_type_description
_atom_site_fract_x
_atom_site_fract_y
_atom_site_fract_z
_atom_type_partial_charge
C1    C     C_R   0.761297 0.523643 0.639191 0.537278
C2    C     C_R   0.238703 0.523643 0.360809 0.537278
C3    C     C_R   0.261297 0.023642 0.639191 0.537278
C4    C     C_R   0.738703 0.023642 0.360809 0.537278
C5    C     C_3   0.810855 0.130718 0.449139 -0.261129
C6    C     C_3   0.189145 0.130718 0.550861 -0.261128
C7    C     C_3   0.310855 0.630718 0.449139 -0.261129
C8    C     C_3   0.689145 0.630718 0.550861 -0.261128
C9    C     C_3   0.747068 0.056712 0.436756 0.066861
C10   C     C_3   0.252932 0.056712 0.563244 0.066861
C11   C     C_3   0.247068 0.556712 0.436756 0.066861
C12   C     C_3   0.752932 0.556712 0.563244 0.066861
C13   C     C_3   0.760089 0.090518 0.574219 0.066659
C14   C     C_3   0.239911 0.090518 0.425781 0.066658
C15   C     C_3   0.260089 0.590518 0.574219 0.066659
C16   C     C_3   0.739911 0.590518 0.425781 0.066658
C17   C     C_3   0.753507 0.958019 0.561924 -0.262707
C18   C     C_3   0.246493 0.958019 0.438076 -0.262707
C19   C     C_3   0.253507 0.458019 0.561924 -0.262707
C20   C     C_3   0.746493 0.458019 0.438076 -0.262707
C21   C     C_3   0.823113 0.133506 0.530138 -0.215295
C22   C     C_3   0.176887 0.133506 0.469862 -0.215295
C23   C     C_3   0.323113 0.633506 0.530138 -0.215295
C24   C     C_3   0.676887 0.633506 0.469862 -0.215295
C25   C     C_3   0.003832 0.204812 0.458998 -0.232566
C26   C     C_3   0.996168 0.204812 0.541002 -0.232567
C27   C     C_3   0.503832 0.704812 0.458998 -0.232566
C28   C     C_3   0.496168 0.704812 0.541002 -0.232567
C29   C     C_3   0.064606 0.406035 0.474488 -0.212534
C30   C     C_3   0.935394 0.406035 0.525512 -0.212534
C31   C     C_3   0.564606 0.906035 0.474488 -0.212534
C32   C     C_3   0.435394 0.906035 0.525512 -0.212534
C33   C     C_3   0.941567 0.390435 0.444428 -0.262734
C34   C     C_3   0.058433 0.390435 0.555572 -0.262733
C35   C     C_3   0.441567 0.890436 0.444428 -0.262734
C36   C     C_3   0.558433 0.890435 0.555572 -0.262733
C37   C     C_3   0.010518 0.333165 0.430940 0.065153
C38   C     C_3   0.989482 0.333165 0.569060 0.065153
C39   C     C_3   0.510517 0.833165 0.430940 0.065153
C40   C     C_3   0.489482 0.833165 0.569060 0.065153
C41   C     C_3   0.819339 0.026183 0.046693 -0.234293
C42   C     C_3   0.180661 0.026183 0.953307 -0.234293
C43   C     C_3   0.319339 0.526183 0.046693 -0.234293
C44   C     C_3   0.680661 0.526183 0.953307 -0.234293
C45   C     C_R   0.774084 0.120963 0.649506 0.536969
C46   C     C_R   0.225916 0.120963 0.350494 0.536968
C47   C     C_R   0.274084 0.620963 0.649506 0.536969
C48   C     C_R   0.725916 0.620963 0.350494 0.536968
C49   C     C_3   0.818450 0.021803 0.965989 -0.235723
C50   C     C_3   0.181550 0.021803 0.034011 -0.235723
C51   C     C_3   0.318450 0.521803 0.965989 -0.235723
C52   C     C_3   0.681550 0.521803 0.034011 -0.235723
C53   C     C_3   0.690916 0.016123 0.031618 -0.223958
C54   C     C_3   0.309084 0.016123 0.968382 -0.223958
C55   C     C_3   0.190916 0.516123 0.031618 -0.223958
C56   C     C_3   0.809084 0.516123 0.968382 -0.223958
C57   C     C_3   0.744584 0.202857 0.061084 -0.255018
C58   C     C_3   0.255416 0.202857 0.938916 -0.255018
C59   C     C_3   0.244584 0.702857 0.061084 -0.255018
C60   C     C_3   0.755416 0.702857 0.938916 -0.255018
C61   C     C_3   0.749069 0.071542 0.075484 0.062427
C62   C     C_3   0.250931 0.071542 0.924516 0.062427
C63   C     C_3   0.249069 0.571542 0.075484 0.062427
C64   C     C_3   0.750931 0.571542 0.924516 0.062427
C65   C     C_3   0.760759 0.103641 0.936155 0.061049
C66   C     C_3   0.239241 0.103640 0.063845 0.061049
C67   C     C_3   0.260759 0.603641 0.936155 0.061049
C68   C     C_3   0.739241 0.603641 0.063845 0.061049
C69   C     C_3   0.693540 0.042374 0.950359 -0.253082
C70   C     C_3   0.306460 0.042374 0.049641 -0.253082
C71   C     C_3   0.193540 0.542374 0.950359 -0.253082
C72   C     C_3   0.806460 0.542374 0.049641 -0.253082
C73   C     C_3   0.758398 0.219519 0.980248 -0.231039
C74   C     C_3   0.241602 0.219519 0.019752 -0.231039
C75   C     C_3   0.258398 0.719519 0.980248 -0.231039
C76   C     C_3   0.741602 0.719519 0.019752 -0.231039
C77   C     C_3   0.998481 0.480719 0.040641 -0.236103
C78   C     C_3   0.001519 0.480719 0.959358 -0.236103
C79   C     C_3   0.498481 0.980719 0.040641 -0.236103
C80   C     C_3   0.501519 0.980719 0.959358 -0.236103
C81   C     C_3   0.067317 0.292168 0.026374 -0.227362
C82   C     C_3   0.932683 0.292168 0.973626 -0.227362
C83   C     C_3   0.567317 0.792168 0.026374 -0.227362
C84   C     C_3   0.432683 0.792168 0.973626 -0.227362
C85   C     C_3   0.946719 0.280964 0.054486 -0.256698
C86   C     C_3   0.053281 0.280964 0.945514 -0.256698
C87   C     C_3   0.446719 0.780964 0.054486 -0.256698
C88   C     C_3   0.553281 0.780964 0.945514 -0.256698
C89   C     C_R   0.969100 0.342158 0.645003 0.535407
C90   C     C_R   0.030900 0.342158 0.354996 0.535407
C91   C     C_R   0.469100 0.842158 0.645003 0.535407
C92   C     C_R   0.530900 0.842158 0.354996 0.535407
C93   C     C_3   0.010163 0.352369 0.069531 0.063504
C94   C     C_3   0.989837 0.352369 0.930469 0.063505
C95   C     C_3   0.510163 0.852369 0.069531 0.063504
C96   C     C_3   0.489837 0.852369 0.930469 0.063505
C97   C     C_R   0.759959 0.535235 0.848181 0.534552
C98   C     C_R   0.240041 0.535235 0.151819 0.534552
C99   C     C_R   0.259959 0.035235 0.848181 0.534552
C100  C     C_R   0.740041 0.035235 0.151819 0.534552
C101  C     C_R   0.774331 0.132569 0.858943 0.534890
C102  C     C_R   0.225669 0.132569 0.141056 0.534890
C103  C     C_R   0.274331 0.632568 0.858943 0.534890
C104  C     C_R   0.725669 0.632568 0.141056 0.534890
C105  C     C_R   0.968564 0.353456 0.853925 0.536410
C106  C     C_R   0.031436 0.353456 0.146075 0.536410
C107  C     C_R   0.468564 0.853456 0.853925 0.536410
C108  C     C_R   0.531436 0.853456 0.146075 0.536410
C109  C     C_3   0.687300 0.132268 0.465206 -0.234487
C110  C     C_3   0.312700 0.132268 0.534794 -0.234487
C111  C     C_3   0.187300 0.632268 0.465206 -0.234487
C112  C     C_3   0.812700 0.632268 0.534794 -0.234487
C113  C     C_3   0.692507 0.145177 0.546416 -0.231430
C114  C     C_3   0.307493 0.145177 0.453583 -0.231430
C115  C     C_3   0.192507 0.645177 0.546416 -0.231430
C116  C     C_3   0.807493 0.645177 0.453583 -0.231430
C117  C     C_3   0.756561 0.939127 0.480606 -0.216931
C118  C     C_3   0.243439 0.939127 0.519394 -0.216931
C119  C     C_3   0.256561 0.439127 0.480606 -0.216931
C120  C     C_3   0.743439 0.439127 0.519394 -0.216931
Cr1   Cr    Cr6+3 0.885690 0.492860 0.745310 0.992383
Cr2   Cr    Cr6+3 0.114310 0.492860 0.254690 0.992383
Cr3   Cr    Cr6+3 0.385690 0.992860 0.745310 0.992383
Cr4   Cr    Cr6+3 0.614310 0.992860 0.254690 0.992383
Cr5   Cr    Cr6+3 0.729880 0.332270 0.748190 0.991982
Cr6   Cr    Cr6+3 0.270120 0.332270 0.251810 0.991982
Cr7   Cr    Cr6+3 0.229880 0.832270 0.748190 0.991982
Cr8   Cr    Cr6+3 0.770120 0.832270 0.251810 0.991982
Cr9   Cr    Cr6+3 0.888120 0.178590 0.753010 0.992542
Cr10  Cr    Cr6+3 0.111880 0.178590 0.246990 0.992542
Cr11  Cr    Cr6+3 0.388120 0.678590 0.753010 0.992542
Cr12  Cr    Cr6+3 0.611880 0.678590 0.246990 0.992542
H1    H     H_    0.638272 0.095952 0.450032 0.131390
H2    H     H_    0.361728 0.095952 0.549968 0.131390
H3    H     H_    0.138272 0.595952 0.450032 0.131390
H4    H     H_    0.861728 0.595952 0.549968 0.131390
H5    H     H_    0.863704 0.067771 0.540524 0.126344
H6    H     H_    0.136296 0.067771 0.459476 0.126344
H7    H     H_    0.363704 0.567771 0.540524 0.126344
H8    H     H_    0.636296 0.567771 0.459476 0.126344
H9    H     H_    0.809104 0.908970 0.469789 0.125231
H10   H     H_    0.190895 0.908970 0.530211 0.125231
H11   H     H_    0.309104 0.408970 0.469789 0.125231
H12   H     H_    0.690895 0.408970 0.530211 0.125231
H13   H     H_    0.795718 0.910083 0.588917 0.120360
H14   H     H_    0.204282 0.910084 0.411083 0.120360
H15   H     H_    0.295718 0.410084 0.588917 0.120360
H16   H     H_    0.704282 0.410084 0.411083 0.120360
H17   H     H_    0.046299 0.150384 0.442207 0.130536
H18   H     H_    0.953701 0.150384 0.557793 0.130536
H19   H     H_    0.546299 0.650384 0.442207 0.130536
H20   H     H_    0.453701 0.650384 0.557793 0.130536
H21   H     H_    0.959213 0.161223 0.434289 0.106875
H22   H     H_    0.040787 0.161223 0.565711 0.106875
H23   H     H_    0.459213 0.661223 0.434289 0.106875
H24   H     H_    0.540787 0.661223 0.565711 0.106875
H25   H     H_    0.616526 0.891204 0.456010 0.112136
H26   H     H_    0.383474 0.891204 0.543990 0.112136
H27   H     H_    0.116526 0.391204 0.456010 0.112136
H28   H     H_    0.883474 0.391204 0.543989 0.112136
H29   H     H_    0.600227 0.835026 0.576889 0.103971
H30   H     H_    0.399773 0.835026 0.423111 0.103971
H31   H     H_    0.100227 0.335026 0.576889 0.103971
H32   H     H_    0.899773 0.335026 0.423111 0.103971
H33   H     H_    0.938357 0.477618 0.417392 0.121682
H34   H     H_    0.061642 0.477618 0.582608 0.121682
H35   H     H_    0.438357 0.977618 0.417392 0.121682
H36   H     H_    0.561642 0.977618 0.582608 0.121682
H37   H     H_    0.947646 0.500029 0.535814 0.129630
H38   H     H_    0.052354 0.500029 0.464185 0.129630
H39   H     H_    0.447646 0.000029 0.535814 0.129630
H40   H     H_    0.552354 0.000029 0.464185 0.129630
H41   H     H_    0.835078 0.937541 0.065271 0.139249
H42   H     H_    0.164921 0.937541 0.934729 0.139249
H43   H     H_    0.335078 0.437541 0.065271 0.139249
H44   H     H_    0.664922 0.437541 0.934729 0.139249
H45   H     H_    0.687798 0.220751 0.439993 0.106876
H46   H     H_    0.312202 0.220751 0.560007 0.106876
H47   H     H_    0.187798 0.720751 0.439993 0.106876
H48   H     H_    0.812202 0.720751 0.560007 0.106876
H49   H     H_    0.859879 0.086354 0.065603 0.115230
H50   H     H_    0.140121 0.086354 0.934396 0.115230
H51   H     H_    0.359879 0.586354 0.065603 0.115230
H52   H     H_    0.640121 0.586354 0.934396 0.115230
H53   H     H_    0.870419 0.042240 0.947659 0.134333
H54   H     H_    0.129581 0.042240 0.052341 0.134333
H55   H     H_    0.370419 0.542240 0.947659 0.134333
H56   H     H_    0.629581 0.542240 0.052341 0.134333
H57   H     H_    0.809254 0.930242 0.947645 0.117276
H58   H     H_    0.190746 0.930242 0.052355 0.117276
H59   H     H_    0.309254 0.430242 0.947645 0.117276
H60   H     H_    0.690746 0.430242 0.052355 0.117276
H61   H     H_    0.699809 0.924514 0.040206 0.109073
H62   H     H_    0.300191 0.924514 0.959794 0.109074
H63   H     H_    0.199809 0.424514 0.040206 0.109073
H64   H     H_    0.800191 0.424514 0.959794 0.109074
H65   H     H_    0.689035 0.959591 0.918812 0.101092
H66   H     H_    0.310964 0.959591 0.081188 0.101092
H67   H     H_    0.189035 0.459591 0.918812 0.101092
H68   H     H_    0.810965 0.459591 0.081188 0.101092
H69   H     H_    0.692977 0.235693 0.075126 0.120431
H70   H     H_    0.307023 0.235693 0.924874 0.120431
H71   H     H_    0.192977 0.735693 0.075126 0.120431
H72   H     H_    0.807022 0.735693 0.924874 0.120431
H73   H     H_    0.782345 0.251990 0.093977 0.099855
H74   H     H_    0.217655 0.251990 0.906023 0.099855
H75   H     H_    0.282345 0.751990 0.093977 0.099855
H76   H     H_    0.717655 0.751990 0.906023 0.099855
H77   H     H_    0.809137 0.251026 0.976827 0.110949
H78   H     H_    0.190863 0.251026 0.023173 0.110949
H79   H     H_    0.309137 0.751026 0.976827 0.110949
H80   H     H_    0.690863 0.751026 0.023173 0.110949
H81   H     H_    0.721252 0.281420 0.957061 0.126582
H82   H     H_    0.278748 0.281420 0.042939 0.126582
H83   H     H_    0.221252 0.781420 0.957061 0.126582
H84   H     H_    0.778748 0.781420 0.042939 0.126582
H85   H     H_    0.641313 0.043173 0.053185 0.129800
H86   H     H_    0.358687 0.043173 0.946814 0.129801
H87   H     H_    0.141313 0.543173 0.053185 0.129800
H88   H     H_    0.858687 0.543173 0.946814 0.129801
H89   H     H_    0.687199 0.237340 0.562054 0.138084
H90   H     H_    0.312801 0.237340 0.437946 0.138084
H91   H     H_    0.187199 0.737340 0.562054 0.138084
H92   H     H_    0.812801 0.737340 0.437946 0.138084
H93   H     H_    0.651226 0.102211 0.934681 0.119114
H94   H     H_    0.348774 0.102211 0.065319 0.119114
H95   H     H_    0.151226 0.602211 0.934681 0.119114
H96   H     H_    0.848774 0.602211 0.065319 0.119114
H97   H     H_    0.034797 0.547493 0.060512 0.133728
H98   H     H_    0.965202 0.547493 0.939488 0.133728
H99   H     H_    0.534798 0.047493 0.060512 0.133728
H100  H     H_    0.465202 0.047493 0.939488 0.133728
H101  H     H_    0.948124 0.512222 0.058626 0.116289
H102  H     H_    0.051876 0.512222 0.941373 0.116289
H103  H     H_    0.448124 0.012222 0.058626 0.116289
H104  H     H_    0.551876 0.012222 0.941373 0.116289
H105  H     H_    0.608142 0.852262 0.032989 0.109475
H106  H     H_    0.391858 0.852262 0.967010 0.109475
H107  H     H_    0.108142 0.352262 0.032989 0.109475
H108  H     H_    0.891858 0.352262 0.967010 0.109475
H109  H     H_    0.597072 0.813934 0.913765 0.099729
H110  H     H_    0.402927 0.813934 0.086235 0.099729
H111  H     H_    0.097072 0.313934 0.913765 0.099729
H112  H     H_    0.902928 0.313934 0.086235 0.099729
H113  H     H_    0.955946 0.187062 0.069019 0.120391
H114  H     H_    0.044054 0.187062 0.930981 0.120391
H115  H     H_    0.455946 0.687062 0.069019 0.120391
H116  H     H_    0.544054 0.687062 0.930981 0.120391
H117  H     H_    0.920368 0.204997 0.951277 0.134460
H118  H     H_    0.079632 0.204997 0.048723 0.134460
H119  H     H_    0.420368 0.704997 0.951277 0.134460
H120  H     H_    0.579632 0.704997 0.048723 0.134460
H121  H     H_    0.648551 0.101255 0.572074 0.106605
H122  H     H_    0.351449 0.101255 0.427926 0.106605
H123  H     H_    0.148551 0.601255 0.572074 0.106605
H124  H     H_    0.851449 0.601255 0.427926 0.106605
H125  H     H_    0.722260 0.868777 0.463575 0.109396
H126  H     H_    0.277740 0.868777 0.536425 0.109396
H127  H     H_    0.222260 0.368777 0.463575 0.109396
H128  H     H_    0.777740 0.368777 0.536425 0.109396
H129  H     H_    0.705209 0.924016 0.584362 0.104084
H130  H     H_    0.294791 0.924016 0.415638 0.104084
H131  H     H_    0.205209 0.424016 0.584362 0.104084
H132  H     H_    0.794791 0.424016 0.415638 0.104084
H133  H     H_    0.855140 0.090371 0.421649 0.122911
H134  H     H_    0.144860 0.090371 0.578351 0.122911
H135  H     H_    0.355140 0.590371 0.421649 0.122911
H136  H     H_    0.644860 0.590371 0.578351 0.122911
H137  H     H_    0.804318 0.221078 0.427522 0.104220
H138  H     H_    0.195682 0.221078 0.572478 0.104220
H139  H     H_    0.304318 0.721078 0.427522 0.104220
H140  H     H_    0.695682 0.721078 0.572478 0.104220
O1    O     O_R   0.957210 0.449410 0.665480 -0.533417
O2    O     O_R   0.042790 0.449410 0.334520 -0.533417
O3    O     O_R   0.457210 0.949410 0.665480 -0.533417
O4    O     O_R   0.542790 0.949410 0.334520 -0.533417
O5    O     O_R   0.736260 0.212010 0.826560 -0.510299
O6    O     O_R   0.263740 0.212010 0.173440 -0.510299
O7    O     O_R   0.236260 0.712010 0.826560 -0.510299
O8    O     O_R   0.763740 0.712010 0.173440 -0.510299
O9    O     O_R   0.832520 0.095300 0.836000 -0.534097
O10   O     O_R   0.167480 0.095300 0.164000 -0.534097
O11   O     O_R   0.332520 0.595300 0.836000 -0.534097
O12   O     O_R   0.667480 0.595300 0.164000 -0.534097
O13   O     O_R   0.946380 0.253940 0.826940 -0.513649
O14   O     O_R   0.053620 0.253940 0.173060 -0.513649
O15   O     O_R   0.446380 0.753940 0.826940 -0.513649
O16   O     O_R   0.553620 0.753940 0.173060 -0.513649
O17   O     O_3   0.834560 0.334570 0.748840 -0.271504
O18   O     O_3   0.165440 0.334570 0.251160 -0.271504
O19   O     O_3   0.334560 0.834570 0.748840 -0.271504
O20   O     O_3   0.665440 0.834570 0.251160 -0.271504
O21   O     O_R   0.820730 0.541240 0.668250 -0.515282
O22   O     O_R   0.179270 0.541240 0.331750 -0.515281
O23   O     O_R   0.320730 0.041240 0.668250 -0.515282
O24   O     O_R   0.679270 0.041240 0.331750 -0.515281
O25   O     O_R   0.714240 0.455060 0.663710 -0.533040
O26   O     O_R   0.285760 0.455060 0.336290 -0.533039
O27   O     O_R   0.214240 0.955060 0.663710 -0.533040
O28   O     O_R   0.785760 0.955060 0.336290 -0.533039
O29   O     O_R   0.736780 0.204870 0.675910 -0.515379
O30   O     O_R   0.263220 0.204870 0.324090 -0.515379
O31   O     O_R   0.236780 0.704870 0.675910 -0.515379
O32   O     O_R   0.763220 0.704870 0.324090 -0.515379
O33   O     O_R   0.833070 0.087590 0.673490 -0.530083
O34   O     O_R   0.166930 0.087590 0.326510 -0.530083
O35   O     O_R   0.333070 0.587590 0.673490 -0.530083
O36   O     O_R   0.666930 0.587590 0.326510 -0.530083
O37   O     O_R   0.946890 0.246800 0.676300 -0.512643
O38   O     O_R   0.053110 0.246800 0.323700 -0.512643
O39   O     O_R   0.446890 0.746800 0.676300 -0.512643
O40   O     O_R   0.553110 0.746800 0.323700 -0.512643
O41   O     O_R   0.956650 0.457120 0.827980 -0.532134
O42   O     O_R   0.043350 0.457120 0.172020 -0.532134
O43   O     O_R   0.456650 0.957120 0.827980 -0.532134
O44   O     O_R   0.543350 0.957120 0.172020 -0.532134
O45   O     O_R   0.820220 0.548390 0.818890 -0.510628
O46   O     O_R   0.179780 0.548390 0.181110 -0.510628
O47   O     O_R   0.320220 0.048390 0.818890 -0.510628
O48   O     O_R   0.679780 0.048390 0.181110 -0.510628
O49   O     O_R   0.713680 0.462770 0.826210 -0.533099
O50   O     O_R   0.286320 0.462770 0.173790 -0.533099
O51   O     O_R   0.213680 0.962770 0.826210 -0.533099
O52   O     O_R   0.786320 0.962770 0.173790 -0.533099
H141  H     H_    0.841944 0.219476 0.547976 0.112889
H142  H     H_    0.158056 0.219476 0.452024 0.112889
H143  H     H_    0.341944 0.719476 0.547976 0.112889
H144  H     H_    0.658056 0.719476 0.452024 0.112889

loop_
_geom_bond_atom_site_label_1
_geom_bond_atom_site_label_2
_ccdc_geom_bond_type
C83   H105  S    
C5    H133  S    
C82   C94   S    
C6    H138  S    
C119  H11   S    
C82   H117  S    
C119  H127  S    
C120  H12   S    
C45   O33   A    
C53   C69   S    
C104  O8    A    
C43   C63   S    
C44   C64   S    
Cr6   O6    S    
C80   H100  S    
C18   H130  S    
C63   C98   S    
Cr2   O2    S    
C31   H40   S    
C28   C40   S    
C36   H36   S    
C30   C38   S    
Cr9   O33   S    
C56   C72   S    
C21   H5    S    
C92   O4    A    
C18   C118  S    
C81   C86   S    
C83   C88   S    
C48   O32   A    
C74   H82   S    
C111  H47   S    
C41   C49   S    
C111  H3    S    
C54   H86   S    
Cr1   O45   S    
C114  H122  S    
Cr2   O42   S    
C109  H1    S    
Cr4   O48   S    
C88   H109  S    
C26   C38   S    
Cr10  O34   S    
C120  H128  S    
Cr11  O39   S    
C22   H142  S    
C24   H8    S    
Cr8   O52   S    
C30   H37   S    
C54   C70   S    
C48   O36   A    
C68   C72   S    
C97   O45   A    
C13   C21   S    
C87   H115  S    
C3    O27   A    
C31   H25   S    
C64   C97   S    
C36   H29   S    
C15   C115  S    
C20   C120  S    
C116  H124  S    
C101  O5    A    
C59   C63   S    
C70   H94   S    
Cr4   O20   S    
C57   C61   S    
C118  H126  S    
C82   C85   S    
Cr6   O50   S    
C77   H97   S    
Cr11  O19   S    
C60   C64   S    
Cr9   O13   S    
C20   H132  S    
C13   C45   S    
C102  O6    A    
C78   C94   S    
C43   H51   S    
C95   C108  S    
C113  H89   S    
C62   C99   S    
C23   H143  S    
C5    C21   S    
C58   H70   S    
C110  H46   S    
C31   C36   S    
C47   O35   A    
C4    O28   A    
C55   C71   S    
C90   O38   A    
C54   H62   S    
Cr1   O21   S    
C80   H104  S    
Cr2   O18   S    
C65   C101  S    
Cr10  O14   S    
Cr3   O23   S    
C7    H139  S    
Cr11  O11   S    
C67   C103  S    
C66   C70   S    
C37   C90   S    
C73   H77   S    
C107  O43   A    
Cr5   O17   S    
C66   C74   S    
C117  H125  S    
C25   H17   S    
C57   C73   S    
C53   C61   S    
C60   H72   S    
C56   H88   S    
C55   C63   S    
C6    H134  S    
C56   C64   S    
Cr7   O51   S    
C42   C62   S    
C8    C12   S    
C112  H48   S    
Cr5   O29   S    
C76   H80   S    
C83   C95   S    
C70   H66   S    
Cr6   O18   S    
C84   H119  S    
C85   H113  S    
C1    C12   S    
C43   H43   S    
C112  H4    S    
C2    C11   S    
C77   H101  S    
Cr3   O3    S    
C7    C11   S    
C53   H85   S    
C42   H42   S    
Cr9   O37   S    
C55   H87   S    
C25   C26   S    
C85   H112  S    
C105  O13   A    
C107  O15   A    
C5    C9    S    
C108  O16   A    
C59   H71   S    
C93   C106  S    
C88   H116  S    
C78   H102  S    
C90   O2    A    
C51   C67   S    
C7    H135  S    
C42   C50   S    
Cr2   O46   S    
Cr3   O43   S    
C110  H2    S    
C61   C100  S    
C67   C75   S    
C91   O3    A    
C50   H54   S    
C112  C116  S    
C51   H59   S    
C58   C74   S    
Cr10  O38   S    
C59   H75   S    
Cr11  O35   S    
C33   H33   S    
C44   H44   S    
C68   C76   S    
C13   C17   S    
C98   O46   A    
C14   C22   S    
C79   H103  S    
C8    H140  S    
C7    C23   S    
C8    C24   S    
C40   C91   S    
C101  O9    A    
Cr7   O27   S    
C99   O51   A    
Cr8   O20   S    
C49   H53   S    
C57   H69   S    
C52   H56   S    
Cr7   O7    S    
C4    C9    S    
Cr4   O24   S    
Cr8   O8    S    
C58   C62   S    
C89   O1    A    
C88   C96   S    
C94   C105  S    
C59   C75   S    
C83   H120  S    
C53   H61   S    
C12   C112  S    
C81   H118  S    
C41   H49   S    
C14   C46   S    
C77   C78   S    
C42   H50   S    
C15   C19   S    
C115  H91   S    
C75   H79   S    
C1    O25   A    
C58   H74   S    
C6    C22   S    
C14   C18   S    
C41   H41   S    
C56   H64   S    
C86   H111  S    
Cr8   O28   S    
Cr2   O22   S    
C15   C47   S    
Cr3   O19   S    
C46   O34   A    
C17   C117  S    
C19   C119  S    
C27   H23   S    
C73   H81   S    
C2    O22   A    
Cr12  O36   S    
C16   C116  S    
C9    C109  S    
C113  H121  S    
C25   H21   S    
C26   H18   S    
C105  O41   A    
C60   H76   S    
C87   H110  S    
C54   C62   S    
C18   H14   S    
Cr3   O47   S    
C29   C34   S    
C108  O44   A    
C33   C37   S    
C41   C61   S    
C81   H107  S    
C116  H92   S    
C117  H9    S    
C79   C95   S    
Cr5   O25   S    
C76   H84   S    
Cr6   O30   S    
C114  H90   S    
Cr12  O12   S    
C32   H39   S    
C91   O39   A    
C100  O52   A    
C39   C92   S    
C27   H19   S    
C106  O14   A    
C84   H106  S    
C68   C104  S    
C69   H93   S    
C17   H13   S    
C6    C10   S    
C71   H67   S    
C1    O21   A    
C78   H98   S    
C22   H6    S    
C5    H137  S    
Cr5   O49   S    
C19   H15   S    
C14   C114  S    
C104  O12   A    
C43   C51   S    
Cr5   O5    S    
C65   C69   S    
C77   C93   S    
C60   C76   S    
C10   C110  S    
C67   C71   S    
C17   H129  S    
C50   H58   S    
Cr1   O1    S    
C51   H55   S    
C19   H131  S    
C109  H45   S    
C72   H96   S    
C29   C37   S    
C11   C111  S    
C34   H34   S    
C55   H63   S    
C9    C117  S    
C102  O10   A    
C35   C39   S    
C84   C87   S    
C103  O7    A    
C8    H136  S    
C11   C119  S    
C16   C48   S    
C29   H27   S    
C30   H28   S    
C38   C89   S    
C49   C65   S    
C74   H78   S    
C23   H7    S    
Cr7   O31   S    
Cr8   O32   S    
C49   H57   S    
Cr1   O41   S    
C57   H73   S    
C65   C73   S    
C24   H144  S    
C52   H60   S    
Cr4   O44   S    
C86   C94   S    
C25   C37   S    
C12   C120  S    
C27   C39   S    
C82   H108  S    
C35   H35   S    
Cr12  O20   S    
C29   H38   S    
C80   C96   S    
C44   H52   S    
C52   C68   S    
C16   C20   S    
C15   C23   S    
Cr9   O17   S    
C86   H114  S    
C69   H65   S    
C85   C93   S    
C2    O26   A    
C103  O11   A    
C32   H26   S    
C35   H30   S    
C32   C35   S    
C36   C40   S    
C33   H32   S    
C34   H31   S    
C97   O49   A    
C66   C102  S    
Cr7   O19   S    
C87   C95   S    
C99   O47   A    
C46   O30   A    
C10   C118  S    
C72   H68   S    
C81   C93   S    
C79   H99   S    
Cr10  O18   S    
C20   H16   S    
Cr12  O40   S    
Cr9   O9    S    
C50   C66   S    
C100  O48   A    
C28   H20   S    
C45   O29   A    
C26   H22   S    
C84   C96   S    
C106  O42   A    
C92   O40   A    
C110  C114  S    
C30   C33   S    
C34   C38   S    
C71   H95   S    
C96   C107  S    
C47   O31   A    
C4    O24   A    
C118  H10   S    
C89   O37   A    
Cr6   O26   S    
C109  C113  S    
Cr1   O17   S    
Cr10  O10   S    
C3    C10   S    
Cr11  O15   S    
Cr4   O4    S    
C44   C52   S    
Cr12  O16   S    
C75   H83   S    
C31   C39   S    
C32   C40   S    
C79   C80   S    
C115  H123  S    
C98   O50   A    
C16   C24   S    
C27   C28   S    
C28   H24   S    
C111  C115  S    
C13   C113  S    
C21   H141  S    
C3    O23   A    
