data_str_m3_o10_o13_f0_pcu.sym.54
_audit_creation_date              2012-12-10T16:49:28-0500
_audit_creation_method            fapswitch 2.2
_symmetry_space_group_name_H-M    P1
_symmetry_Int_Tables_number       1
_space_group_crystal_system       triclinic
_cell_length_a                    7.796208
_cell_length_b                    8.568857
_cell_length_c                    12.91982
_cell_angle_alpha                 89.782858
_cell_angle_beta                  88.419082
_cell_angle_gamma                 93.591079
_cell_volume                      861.067529832

loop_
_atom_site_label
_atom_site_type_symbol
_atom_type_description
_atom_site_fract_x
_atom_site_fract_y
_atom_site_fract_z
_atom_type_partial_charge
C1    C     C_R   0.454810 0.205411 0.497302 0.981769
C2    C     C_R   0.709208 0.439312 0.139070 0.394054
C3    C     C_R   0.590900 0.496991 0.869667 -0.221379
C4    C     C_R   0.404977 0.486425 0.131206 -0.217060
C5    C     C_R   0.578735 0.484240 0.975781 0.096104
C6    C     C_R   0.416139 0.482170 0.024975 0.092404
C7    C     C_2   0.431088 0.041858 0.495793 -0.324923
C8    C     C_2   0.568967 0.958186 0.504008 -0.330126
C9    C     C_R   0.545207 0.794596 0.502635 0.938686
C10   C     C_R   0.465024 0.495535 0.699710 0.925399
C11   C     C_R   0.532482 0.488019 0.300479 0.911718
C12   C     C_R   0.551552 0.470578 0.189378 -0.198636
C13   C     C_R   0.442392 0.482835 0.811141 -0.199198
C14   C     C_R   0.267342 0.468037 0.967564 -0.247125
C15   C     C_R   0.725065 0.464320 0.032881 -0.247709
C16   C     C_R   0.280249 0.450712 0.860972 0.409489
H1    H     H_    0.280601 0.498309 0.168054 0.248893
H2    H     H_    0.030763 0.172020 0.900354 0.373944
H3    H     H_    0.717005 0.511981 0.833001 0.248757
H4    H     H_    0.142853 0.458731 0.006203 0.219632
H5    H     H_    0.848468 0.457836 0.994166 0.221642
H6    H     H_    0.999983 0.626870 0.429583 0.213360
H7    H     H_    0.999201 0.370243 0.567678 0.261436
H8    H     H_    0.300796 0.990843 0.488017 0.190214
H9    H     H_    0.699261 0.009227 0.511763 0.199035
H10   H     H_    0.919812 0.162980 0.093494 0.370562
N1    N     N_2   0.054030 0.541640 0.471970 -0.130071
N2    N     N_2   0.945970 0.458360 0.528030 -0.116024
O1    O     O_R   0.609680 0.261530 0.506880 -0.604372
O2    O     O_2   0.807683 0.235244 0.282463 -0.291218
O3    O     O_3   0.996695 0.252486 0.115416 -0.567849
O4    O     O_2   0.005789 0.494326 0.749468 -0.313842
O5    O     O_2   0.156851 0.256212 0.714200 -0.334649
O6    O     O_3   0.966732 0.263139 0.880201 -0.567199
O7    O     O_R   0.390320 0.738470 0.493120 -0.623390
O8    O     O_R   0.323330 0.288220 0.488910 -0.606512
O9    O     O_R   0.676670 0.711780 0.511090 -0.633585
O10   O     O_R   0.619510 0.488830 0.661140 -0.603278
O11   O     O_R   0.380490 0.511170 0.338860 -0.607534
O12   O     O_R   0.333160 0.515520 0.643180 -0.561244
O13   O     O_R   0.666840 0.484480 0.356820 -0.558998
O14   O     O_2   0.990980 0.474328 0.251195 -0.314480
S1    S     S_3+6 0.878239 0.349765 0.201137 0.012313
S2    S     S_3+6 0.099921 0.365793 0.797141 -0.006586
Zn1   Zn    Zn3+2 0.691200 0.482180 0.511990 1.062697
Zn2   Zn    Zn3+2 0.308800 0.517820 0.488010 1.054879

loop_
_geom_bond_atom_site_label_1
_geom_bond_atom_site_label_2
_ccdc_geom_bond_type
C11   O11   A    
C11   C12   S    
C3    H3    S    
C8    H9    S    
C4    C12   A    
C16   S2    S    
C3    C13   A    
C2    S1    S    
C10   O10   A    
C2    C12   A    
C9    O9    A    
O4    S2    D    
C7    C8    D    
H7    N2    S    
O12   Zn2   S    
C2    C15   A    
H2    O6    S    
O3    S1    S    
O11   Zn2   S    
C4    H1    S    
N1    Zn2   S    
C1    O1    A    
C11   O13   A    
H6    N1    S    
C5    C6    A    
N2    Zn1   S    
C14   C16   A    
O2    S1    D    
C5    C15   A    
C4    C6    A    
C6    C14   A    
O14   S1    D    
O9    Zn1   S    
C7    H8    S    
C14   H4    S    
C15   H5    S    
O6    S2    S    
C10   O12   A    
C13   C16   A    
N1    N2    D    
C9    O7    A    
O13   Zn1   S    
O10   Zn1   S    
O8    Zn2   S    
C1    C7    S    
O5    S2    D    
H10   O3    S    
C1    O8    A    
O1    Zn1   S    
C8    C9    S    
C3    C5    A    
C10   C13   S    
O7    Zn2   S    
