data_str_m9_o2_o16_f0_sra.sym.35
_audit_creation_date              2012-12-11T16:25:29-0500
_audit_creation_method            fapswitch 2.2
_symmetry_space_group_name_H-M    P1
_symmetry_Int_Tables_number       1
_space_group_crystal_system       triclinic
_cell_length_a                    20.586338
_cell_length_b                    7.273542
_cell_length_c                    13.201261
_cell_angle_alpha                 90.000877
_cell_angle_beta                  103.915761
_cell_angle_gamma                 89.996387
_cell_volume                      1918.68326561

loop_
_atom_site_label
_atom_site_type_symbol
_atom_type_description
_atom_site_fract_x
_atom_site_fract_y
_atom_site_fract_z
_atom_type_partial_charge
O1    O     O_R   0.449520 0.506760 0.599710 -0.538146
O2    O     O_R   0.550480 0.006760 0.400290 -0.538145
O3    O     O_R   0.587930 0.180200 0.595790 -0.540903
O4    O     O_R   0.412070 0.680200 0.404210 -0.540893
C1    C     C_R   0.613425 0.344293 0.620337 0.691949
C2    C     C_R   0.386576 0.844301 0.379659 0.691947
O5    O     O_R   0.452350 0.177380 0.611700 -0.539860
O6    O     O_R   0.547650 0.677380 0.388300 -0.539856
O7    O     O_R   0.413930 0.001760 0.416320 -0.532640
O8    O     O_R   0.586070 0.501760 0.583680 -0.532640
C3    C     C_R   0.435867 0.345925 0.637303 0.681312
C4    C     C_R   0.564132 0.845913 0.362697 0.681302
O9    O     O_3   0.487550 0.337460 0.435880 -0.377296
O10   O     O_3   0.512450 0.837460 0.564120 -0.377307
V1    V     V_3+5 0.502310 0.064670 0.511900 1.418780
V2    V     V_3+5 0.497690 0.564670 0.488100 1.418799
C5    C     C_R   0.607550 0.959690 0.110436 -0.152987
C6    C     C_R   0.392408 0.460352 0.889447 -0.152999
H1    H     H_    0.518185 0.961572 0.166150 0.111468
H2    H     H_    0.481771 0.462217 0.833723 0.111487
H3    H     H_    0.684688 0.998850 0.981055 0.129044
H4    H     H_    0.315266 0.499605 0.018825 0.129066
H5    H     H_    0.581779 0.010005 0.034055 0.118733
H6    H     H_    0.418157 0.510951 0.965767 0.118756
C7    C     C_R   0.602056 0.859711 0.282383 -0.030295
C8    C     C_R   0.397946 0.359789 0.717622 -0.030360
C9    C     C_R   0.920949 0.787977 0.307411 -0.184723
C10   C     C_R   0.079075 0.287601 0.692642 -0.184653
C11   C     C_R   0.885960 0.762852 0.383396 -0.124827
C12   C     C_R   0.114071 0.262391 0.616673 -0.124835
C13   C     C_R   0.817645 0.792382 0.360860 -0.146809
C14   C     C_R   0.182379 0.292111 0.639185 -0.146834
C15   C     C_R   0.781496 0.843063 0.259406 0.051651
C16   C     C_R   0.218509 0.343055 0.740599 0.051619
C17   C     C_R   0.817638 0.872677 0.179917 0.029277
C18   C     C_R   0.182358 0.372774 0.820066 0.029408
C19   C     C_R   0.710377 0.864645 0.235355 0.055345
C20   C     C_R   0.289620 0.364776 0.764635 0.055362
C21   C     C_R   0.676794 0.927846 0.134949 0.137636
C22   C     C_R   0.323177 0.428327 0.864973 0.137637
C23   C     C_R   0.711843 0.956424 0.058610 -0.241634
C24   C     C_R   0.288120 0.457006 0.941297 -0.241646
C25   C     C_R   0.780277 0.921702 0.077489 -0.063241
C26   C     C_R   0.219703 0.422036 0.922459 -0.063257
C27   C     C_R   0.671008 0.826415 0.307729 -0.222490
C28   C     C_R   0.329004 0.326329 0.692315 -0.222558
C29   C     C_R   0.570885 0.929366 0.184506 -0.183464
C30   C     C_R   0.429085 0.429844 0.815409 -0.183396
C31   C     C_R   0.889178 0.851012 0.207478 -0.080682
C32   C     C_R   0.110826 0.350936 0.792527 -0.080616
H7    H     H_    0.691999 0.774086 0.384964 0.107998
H8    H     H_    0.308025 0.273712 0.615152 0.108046
H9    H     H_    0.973469 0.754105 0.327360 0.114747
H10   H     H_    0.026565 0.253559 0.672725 0.114769
H11   H     H_    0.794796 0.773249 0.425307 0.122363
H12   H     H_    0.205242 0.272899 0.574764 0.122384
H13   H     H_    0.912102 0.718403 0.460744 0.121408
H14   H     H_    0.087941 0.217723 0.539359 0.121371
H15   H     H_    0.120766 0.840655 0.508412 0.119585
H16   H     H_    0.879237 0.340469 0.491587 0.119622
C33   C     C_R   0.227097 0.913397 0.033221 -0.146876
C34   C     C_R   0.772899 0.413614 0.966754 -0.147065
C35   C     C_R   0.280259 0.940730 0.986955 -0.102976
C36   C     C_R   0.719729 0.440813 0.013023 -0.103142
C37   C     C_R   0.345870 0.940662 0.047407 0.207958
C38   C     C_R   0.654115 0.440563 0.952580 0.208005
C39   C     C_R   0.358006 0.910497 0.155285 -0.160680
C40   C     C_R   0.641987 0.410402 0.844705 -0.160687
C41   C     C_R   0.304691 0.883188 0.204340 0.020376
C42   C     C_R   0.695308 0.383193 0.795649 0.020371
C43   C     C_R   0.237781 0.886745 0.142313 0.060581
C44   C     C_R   0.762218 0.386850 0.857671 0.060524
C45   C     C_R   0.317091 0.849898 0.313125 -0.151363
C46   C     C_R   0.682911 0.349880 0.686869 -0.151365
C47   C     C_R   0.262702 0.827536 0.360300 0.040338
C48   C     C_R   0.737300 0.327519 0.639696 0.040333
C49   C     C_R   0.195569 0.855414 0.301166 0.056433
C50   C     C_R   0.804434 0.355371 0.698830 0.056453
C51   C     C_R   0.182834 0.866868 0.189383 -0.141503
C52   C     C_R   0.817167 0.366906 0.810610 -0.141489
C53   C     C_R   0.274641 0.783970 0.467780 -0.153903
C54   C     C_R   0.725359 0.283957 0.532219 -0.153907
C55   C     C_R   0.222857 0.779172 0.518055 -0.168589
C56   C     C_R   0.777141 0.279122 0.481944 -0.168633
C57   C     C_R   0.159095 0.830733 0.464965 -0.106825
C58   C     C_R   0.840907 0.330605 0.535034 -0.106753
C59   C     C_R   0.145214 0.877361 0.358700 0.139884
C60   C     C_R   0.854795 0.377214 0.641297 0.139936
H17   H     H_    0.177398 0.915433 0.982094 0.126403
H18   H     H_    0.822601 0.415779 0.017875 0.126495
H19   H     H_    0.269919 0.962910 0.903436 0.124544
H20   H     H_    0.730065 0.463027 0.096537 0.124566
H21   H     H_    0.409393 0.909014 0.200352 0.093154
H22   H     H_    0.590597 0.408801 0.799646 0.093137
H23   H     H_    0.324242 0.753859 0.514695 0.128964
H24   H     H_    0.675758 0.253879 0.485303 0.128953
H25   H     H_    0.232974 0.745079 0.600239 0.135596
H26   H     H_    0.767021 0.245040 0.399761 0.135606
O11   O     O_R   0.913760 0.203480 0.916370 -0.545423
O12   O     O_R   0.086240 0.703480 0.083630 -0.545521
O13   O     O_R   0.047590 0.535230 0.888250 -0.552234
O14   O     O_R   0.952410 0.035230 0.111750 -0.552218
C61   C     C_R   0.067785 0.367913 0.866979 0.724680
C62   C     C_R   0.932219 0.867926 0.133027 0.724868
O15   O     O_R   0.912020 0.532880 0.904260 -0.501758
O16   O     O_R   0.087980 0.032880 0.095740 -0.501794
O17   O     O_R   0.949590 0.708460 0.099750 -0.521959
O18   O     O_R   0.050410 0.208460 0.900250 -0.521991
C63   C     C_R   0.886440 0.365896 0.880143 0.692123
C64   C     C_R   0.113560 0.865886 0.119857 0.692087
O19   O     O_3   0.012370 0.375360 0.064120 -0.372145
O20   O     O_3   0.987630 0.875360 0.935880 -0.372039
V3    V     V_3+5 0.997700 0.648160 0.988110 1.477381
V4    V     V_3+5 0.002300 0.148160 0.011890 1.477392
C65   C     C_3   0.402992 0.972961 0.997149 -0.810005
H27   H     H_    0.385234 0.992991 0.911485 0.221394
H28   H     H_    0.430739 0.098377 0.030634 0.211060
H29   H     H_    0.437229 0.852831 0.011025 0.200990
C66   C     C_3   0.596979 0.472664 0.002842 -0.809927
H30   H     H_    0.614724 0.492584 0.088518 0.221384
H31   H     H_    0.569209 0.598090 0.969412 0.210963
H32   H     H_    0.562766 0.352491 0.988902 0.201092
C67   C     C_3   0.080311 0.974496 0.315532 -0.774173
H33   H     H_    0.089717 0.108896 0.281979 0.228957
H34   H     H_    0.048582 0.886068 0.256714 0.182681
H35   H     H_    0.052617 0.004019 0.376277 0.182850
C68   C     C_3   0.919719 0.474173 0.684463 -0.774379
H36   H     H_    0.910354 0.608598 0.718018 0.228960
H37   H     H_    0.951417 0.385684 0.743273 0.182712
H38   H     H_    0.947418 0.503599 0.623715 0.182917
C69   C     C_2   0.807248 0.929976 0.983844 0.368976
H39   H     H_    0.799879 0.051698 0.935885 0.050515
O21   O     O_2   0.831264 0.794230 0.953085 -0.516826
C70   C     C_2   0.192765 0.429930 0.016145 0.368988
H40   H     H_    0.200054 0.551455 0.064164 0.050622
O22   O     O_2   0.168897 0.293973 0.046877 -0.516938

loop_
_geom_bond_atom_site_label_1
_geom_bond_atom_site_label_2
_ccdc_geom_bond_type
C38   C40   A    
C35   C37   A    
O12   C64   A    
C9    C11   A    
C37   C65   S    
O1    C3    A    
O2    C4    A    
C31   C62   S    
C43   C51   A    
O3    V1    S    
C67   H33   S    
C21   C23   A    
C69   O21   D    
O5    C3    A    
C59   C67   S    
C5    H5    S    
C46   C48   A    
O16   V4    S    
C6    H6    S    
O15   V3    S    
C20   C22   A    
C48   C50   A    
C60   C68   S    
C53   H23   S    
H1    C29   S    
C67   H34   S    
C27   H7    S    
C65   H27   S    
O11   C63   A    
C28   H8    S    
C2    O7    A    
O13   V3    S    
C41   C43   A    
C5    C21   A    
O18   V4    S    
C1    C46   S    
C33   C35   A    
C6    C22   A    
O17   V3    S    
C34   C36   A    
C12   H14   S    
C10   C32   A    
C65   H28   S    
C52   C63   S    
C17   C31   A    
C13   C15   A    
C68   H36   S    
C41   C45   A    
C61   O18   A    
C17   C25   A    
C7    C29   A    
C16   C18   A    
C8    C30   A    
C33   C43   A    
C22   C24   A    
C32   C61   S    
O6    V2    S    
C11   C13   A    
C45   C47   A    
C24   C26   A    
O11   V4    S    
O20   V3    S    
C53   C55   A    
C33   H17   S    
C49   C51   A    
C26   C70   S    
C54   H24   S    
O12   V3    S    
C57   C59   A    
O4    C2    A    
C48   C54   A    
H16   C58   S    
C47   C53   A    
C67   H35   S    
C70   O22   D    
O5    V1    S    
C3    C8    S    
C37   C39   A    
C15   C19   A    
C44   C52   A    
C39   C41   A    
C36   C38   A    
O4    V2    S    
C68   H37   S    
C42   C46   A    
O14   V4    S    
O6    C4    A    
C65   H29   S    
C50   C52   A    
C34   C44   A    
O1    V2    S    
O14   C62   A    
O2    V1    S    
C47   C49   A    
H2    C30   S    
C66   H31   S    
H3    C23   S    
C55   C57   A    
C11   H13   S    
C54   C56   A    
C38   C66   S    
C18   C26   A    
C36   H20   S    
C19   C27   A    
C69   H39   S    
C7    C27   A    
C18   C32   A    
C2    C45   S    
O16   C64   A    
C66   H32   S    
C50   C60   A    
O15   C63   A    
C10   H10   S    
C51   C64   S    
C16   C20   A    
C23   C25   A    
C5    C29   A    
C56   C58   A    
O3    C1    A    
C6    C30   A    
C66   H30   S    
C9    H9    S    
C70   H40   S    
O13   C61   A    
C4    C7    S    
C56   H26   S    
C10   C12   A    
O7    V1    S    
C68   H38   S    
C1    O8    A    
C19   C21   A    
O8    V2    S    
C12   C14   A    
H4    C24   S    
C34   H18   S    
C25   C69   S    
C15   C17   A    
O19   V4    S    
C58   C60   A    
C40   H22   S    
C20   C28   A    
C8    C28   A    
C49   C59   A    
C40   C42   A    
C55   H25   S    
O9    V2    S    
C35   H19   S    
C39   H21   S    
O10   V1    S    
C42   C44   A    
C13   H11   S    
H15   C57   S    
C14   H12   S    
C62   O17   A    
C9    C31   A    
C14   C16   A    
