data_str_m4_o4_o22_f0_acs.sym.120
_audit_creation_date              2012-12-11T15:48:34-0500
_audit_creation_method            fapswitch 2.2
_symmetry_space_group_name_H-M    P1
_symmetry_Int_Tables_number       1
_space_group_crystal_system       triclinic
_cell_length_a                    10.965642
_cell_length_b                    10.905761
_cell_length_c                    18.814191
_cell_angle_alpha                 90.270955
_cell_angle_beta                  90.053174
_cell_angle_gamma                 60.307872
_cell_volume                      1954.51841447

loop_
_atom_site_label
_atom_site_type_symbol
_atom_type_description
_atom_site_fract_x
_atom_site_fract_y
_atom_site_fract_z
_atom_type_partial_charge
C1    C     C_R   0.240170 0.644610 0.610648 0.549601
C2    C     C_3   0.725211 0.522055 0.797350 0.228475
C3    C     C_3   0.698152 0.672524 0.813269 0.073967
C4    C     C_3   0.668596 0.646782 0.677496 0.013617
C5    C     C_3   0.786219 0.682808 0.688764 -0.251442
C6    C     C_3   0.704376 0.508716 0.718070 -0.157926
C7    C     C_R   0.683507 0.146675 0.821119 0.011264
C8    C     C_R   0.777178 0.174847 0.784410 0.041688
C9    C     C_R   0.770932 0.185867 0.710351 0.015951
C10   C     C_R   0.583446 0.131384 0.708104 -0.174991
C11   C     C_R   0.581642 0.132473 0.781169 -0.164776
C12   C     C_R   0.652660 0.621180 0.601762 0.543449
C13   C     C_3   0.932332 0.091014 0.784911 -0.252501
C14   C     C_3   0.927046 0.101807 0.704735 -0.282805
C15   C     C_R   0.674433 0.163291 0.671557 0.009046
C16   C     C_R   0.190478 0.664804 0.837823 0.013799
C17   C     C_R   0.201594 0.551442 0.798195 0.007195
C18   C     C_R   0.207619 0.548577 0.725923 0.015072
C19   C     C_R   0.207843 0.766753 0.725891 -0.185472
C20   C     C_R   0.207994 0.766299 0.800219 -0.181727
C21   C     C_3   0.196198 0.417867 0.802534 -0.270093
C22   C     C_3   0.204890 0.413700 0.720723 -0.269609
C23   C     C_R   0.629882 0.225743 0.601754 0.544416
C24   C     C_R   0.207564 0.656475 0.686430 0.011282
C25   C     C_R   0.654402 0.657722 0.165707 0.015834
C26   C     C_R   0.753044 0.537828 0.202993 0.033418
C27   C     C_R   0.747851 0.531487 0.275499 0.039246
C28   C     C_R   0.533176 0.752877 0.277879 -0.165978
C29   C     C_R   0.535671 0.758389 0.203103 -0.167153
C30   C     C_3   0.910982 0.462035 0.204295 -0.266036
C31   C     C_3   0.903286 0.455590 0.284168 -0.279503
C32   C     C_R   0.645627 0.643139 0.314956 0.012441
C33   C     C_R   0.640340 0.182839 0.170487 0.020625
C34   C     C_R   0.289346 0.619727 0.393251 0.570388
C35   C     C_R   0.524544 0.197784 0.208709 0.025612
C36   C     C_R   0.523729 0.204806 0.281392 0.027455
C37   C     C_R   0.740027 0.210450 0.280221 -0.160958
C38   C     C_R   0.741733 0.203288 0.206105 -0.162491
C39   C     C_3   0.458173 0.106431 0.210224 -0.269945
C40   C     C_3   0.457325 0.115487 0.290369 -0.284633
C41   C     C_R   0.635136 0.200687 0.318641 0.018488
C42   C     C_R   0.176910 0.662831 0.176592 0.017509
C43   C     C_R   0.205974 0.759751 0.211195 0.036716
C44   C     C_R   0.245129 0.742617 0.280876 0.024834
C45   C     C_R   0.639805 0.620551 0.390805 0.539655
C46   C     C_R   0.251418 0.518151 0.281771 -0.157465
C47   C     C_R   0.211050 0.535530 0.210281 -0.171299
C48   C     C_3   0.113710 0.916405 0.220471 -0.268002
C49   C     C_3   0.154252 0.896645 0.297598 -0.269742
C50   C     C_R   0.260099 0.626654 0.318315 0.016323
C51   C     C_R   0.702577 0.098504 0.894871 0.545560
C52   C     C_R   0.722050 0.686791 0.889000 0.557726
C53   C     C_R   0.121606 0.704205 0.906990 0.537052
C54   C     C_R   0.673735 0.110256 0.102832 0.547369
C55   C     C_R   0.695540 0.688141 0.096985 0.542152
C56   C     C_R   0.614709 0.233750 0.393492 0.537934
C57   C     C_R   0.095892 0.708642 0.111863 0.543743
C58   C     C_3   0.546060 0.779673 0.790141 -0.296525
C59   C     C_3   0.531012 0.768152 0.709516 -0.258682
C60   C     C_3   0.800378 0.703124 0.768876 -0.202109
Cr1   Cr    Cr6+3 0.392960 0.397920 0.502240 1.006552
Cr2   Cr    Cr6+3 0.398340 0.708480 0.501250 0.999244
Cr3   Cr    Cr6+3 0.708670 0.393570 0.496460 1.003531
Cr4   Cr    Cr6+3 0.937650 0.938540 0.007610 1.013810
Cr5   Cr    Cr6+3 0.625330 0.937370 0.994520 1.000584
Cr6   Cr    Cr6+3 0.937940 0.625230 0.001190 1.027187
H1    H     H_    0.519712 0.889499 0.803109 0.145333
H2    H     H_    0.802438 0.418902 0.696428 0.186238
H3    H     H_    0.910316 0.633212 0.785225 0.163560
H4    H     H_    0.886737 0.596903 0.667258 0.130685
H5    H     H_    0.507154 0.113396 0.680252 0.124914
H6    H     H_    0.504875 0.111200 0.805593 0.137802
H7    H     H_    0.966178 0.983722 0.804704 0.154572
H8    H     H_    0.981686 0.147200 0.810913 0.200649
H9    H     H_    0.973141 0.165067 0.683810 0.146110
H10   H     H_    0.962343 0.999466 0.677000 0.138542
H11   H     H_    0.210708 0.853413 0.699682 0.136281
H12   H     H_    0.470301 0.758184 0.819037 0.109848
H13   H     H_    0.207508 0.854183 0.827553 0.136038
H14   H     H_    0.095535 0.432703 0.823805 0.212145
H15   H     H_    0.291015 0.332647 0.828600 0.136468
H16   H     H_    0.304184 0.326904 0.699246 0.158203
H17   H     H_    0.108801 0.425981 0.694691 0.137670
H18   H     H_    0.446724 0.836017 0.306748 0.129133
H19   H     H_    0.451396 0.846629 0.175605 0.123477
H20   H     H_    0.954805 0.529696 0.187432 0.169735
H21   H     H_    0.958376 0.356521 0.178295 0.127010
H22   H     H_    0.945415 0.346521 0.304397 0.133793
H23   H     H_    0.445382 0.745295 0.699518 0.153587
H24   H     H_    0.941552 0.519873 0.312432 0.144477
H25   H     H_    0.822418 0.219256 0.307263 0.134153
H26   H     H_    0.829536 0.199278 0.177721 0.127102
H27   H     H_    0.531353 0.999174 0.190162 0.170049
H28   H     H_    0.351419 0.158903 0.186424 0.128116
H29   H     H_    0.349934 0.174670 0.313268 0.133020
H30   H     H_    0.528553 0.013378 0.316544 0.140277
H31   H     H_    0.265386 0.425677 0.309574 0.143488
H32   H     H_    0.195984 0.455755 0.183781 0.120800
H33   H     H_    0.000634 0.952040 0.212557 0.159936
H34   H     H_    0.503314 0.870145 0.683502 0.128325
H35   H     H_    0.153913 0.977244 0.190952 0.130503
H36   H     H_    0.213521 0.950361 0.313375 0.126425
H37   H     H_    0.064567 0.918661 0.333167 0.157051
H38   H     H_    0.777384 0.813279 0.778853 0.113583
H39   H     H_    0.761625 0.781118 0.659742 0.116809
H40   H     H_    0.650879 0.501397 0.828379 0.117982
H41   H     H_    0.618300 0.483588 0.710581 0.084577
O1    O     O_R   0.507380 0.255700 0.581440 -0.528000
O2    O     O_R   0.524480 0.695810 0.424040 -0.522703
O3    O     O_R   0.736390 0.504290 0.414790 -0.514754
O4    O     O_R   0.691300 0.277290 0.422170 -0.511230
O5    O     O_3   0.499990 0.499990 0.499980 -0.271170
O6    O     O_R   0.089400 0.825690 0.930570 -0.530754
O7    O     O_R   0.818460 0.054440 0.929850 -0.493966
O8    O     O_R   0.606060 0.077150 0.915510 -0.534462
O9    O     O_R   0.646550 0.806680 0.917570 -0.527520
O10   O     O_R   0.837170 0.593410 0.915250 -0.454221
O11   O     O_R   0.065200 0.635530 0.931570 -0.504238
O12   O     O_R   0.280320 0.527350 0.578930 -0.492427
O13   O     O_R   0.068260 0.828890 0.091840 -0.523026
O14   O     O_R   0.798870 0.057410 0.079340 -0.508816
O15   O     O_R   0.584930 0.080350 0.076780 -0.521249
O16   O     O_R   0.626960 0.809650 0.067060 -0.508667
O17   O     O_R   0.816040 0.596610 0.076510 -0.522750
O18   O     O_R   0.045610 0.638500 0.081060 -0.515779
O19   O     O_3   0.833640 0.833710 0.001100 -0.253549
O20   O     O_R   0.260510 0.739590 0.584590 -0.530281
O21   O     O_R   0.532300 0.695080 0.573820 -0.506429
O22   O     O_R   0.744840 0.503500 0.576370 -0.528504
O23   O     O_R   0.699120 0.276560 0.571960 -0.500390
O24   O     O_R   0.498940 0.256500 0.419860 -0.528072
O25   O     O_R   0.272500 0.528080 0.429150 -0.508592
O26   O     O_R   0.252060 0.740380 0.423010 -0.521050
F1    F     F_    0.860619 0.420928 0.815949 -0.673810

loop_
_geom_bond_atom_site_label_1
_geom_bond_atom_site_label_2
_ccdc_geom_bond_type
C44   C49   S    
C8    C13   S    
Cr1   O12   S    
C32   C45   S    
C35   C36   A    
C9    C14   S    
C7    C8    A    
C41   C56   S    
C5    H39   S    
C7    C11   A    
C26   C27   A    
C2    F1    S    
C47   H32   S    
C18   C24   A    
C22   H16   S    
Cr2   O26   S    
C28   C29   A    
C10   C15   A    
C57   O18   A    
C30   C31   S    
C45   O2    A    
C28   H18   S    
C48   H35   S    
Cr4   O14   S    
C38   H26   S    
C4    C59   S    
C59   H23   S    
Cr3   O23   S    
Cr3   O5    S    
C19   H11   S    
Cr1   O1    S    
C16   C53   S    
C39   H27   S    
Cr1   O25   S    
C55   O17   A    
C19   C20   A    
C8    C9    A    
Cr6   O10   S    
C6    H41   S    
C31   H22   S    
C30   H20   S    
C53   O11   A    
C43   C48   S    
C56   O4    A    
C29   H19   S    
C20   H13   S    
C3    C60   S    
C15   C23   S    
C54   O15   A    
C34   O25   A    
C13   C14   S    
C37   C41   A    
C59   H34   S    
Cr5   O8    S    
C36   C41   A    
C2    C6    S    
C40   H30   S    
C42   C57   S    
C53   O6    A    
C52   O9    A    
C25   C29   A    
C55   O16   A    
C34   C50   S    
C51   O7    A    
Cr4   O7    S    
C12   O22   A    
C37   H25   S    
C27   C31   S    
C1    O20   A    
C28   C32   A    
C4    C6    S    
C49   H36   S    
C58   H12   S    
C11   H6    S    
C16   C17   A    
C34   O26   A    
C25   C26   A    
C2    H40   S    
C51   O8    A    
Cr6   O19   S    
C23   O23   A    
C14   H10   S    
C35   C39   S    
C43   C44   A    
C39   H28   S    
C1    O12   A    
C37   C38   A    
C36   C40   S    
C16   C20   A    
C31   H24   S    
C45   O3    A    
C17   C18   A    
Cr5   O15   S    
C57   O13   A    
C48   C49   S    
C46   H31   S    
C13   H7    S    
C26   C30   S    
Cr4   O19   S    
Cr5   O9    S    
Cr6   O17   S    
C4    C12   S    
C42   C43   A    
C40   H29   S    
C39   C40   S    
C44   C50   A    
C33   C54   S    
C48   H33   S    
C46   C47   A    
Cr4   O6    S    
C5    C60   S    
C27   C32   A    
C18   C22   S    
Cr5   O16   S    
C54   O14   A    
C25   C55   S    
C21   H15   S    
C4    C5    S    
C5    H4    S    
C49   H37   S    
C3    C52   S    
C12   O21   A    
C14   H9    S    
C46   C50   A    
C33   C38   A    
Cr4   O13   S    
Cr6   O18   S    
Cr5   O19   S    
Cr3   O3    S    
C19   C24   A    
C58   C59   S    
C7    C51   S    
C60   H38   S    
C22   H17   S    
Cr2   O21   S    
Cr2   O20   S    
Cr2   O2    S    
C60   H3    S    
C23   O1    A    
C21   H14   S    
C6    H2    S    
C33   C35   A    
C2    C3    S    
C42   C47   A    
Cr3   O22   S    
Cr3   O4    S    
C17   C21   S    
C56   O24   A    
C10   C11   A    
Cr1   O24   S    
C10   H5    S    
C3    C58   S    
C58   H1    S    
Cr2   O5    S    
C13   H8    S    
C1    C24   S    
Cr6   O11   S    
C52   O10   A    
C30   H21   S    
C21   C22   S    
Cr1   O5    S    
C9    C15   A    
