data_str_m4_o14_o22_f0_acs.sym.89
_audit_creation_date              2013-03-05T15:42:27-0500
_audit_creation_method            fapswitch 2.2
_symmetry_space_group_name_H-M    P1
_symmetry_Int_Tables_number       1
_space_group_crystal_system       triclinic
_cell_length_a                    10.885555
_cell_length_b                    10.999168
_cell_length_c                    18.862017
_cell_angle_alpha                 90.540156
_cell_angle_beta                  90.195427
_cell_angle_gamma                 61.201057
_cell_volume                      1978.97090524

loop_
_atom_site_label
_atom_site_type_symbol
_atom_site_description
_atom_site_fract_x
_atom_site_fract_y
_atom_site_fract_z
_atom_type_partial_charge
O1    O     O_R   0.507340 0.255690 0.581430 -0.518336
O2    O     O_R   0.280360 0.527380 0.578910 -0.513887
C1    C     C_R   0.242202 0.642919 0.611426 0.530018
O3    O     O_R   0.260600 0.739610 0.584580 -0.530445
O4    O     O_R   0.532370 0.695050 0.573830 -0.507670
C2    C     C_R   0.653763 0.621239 0.601012 0.537848
O5    O     O_R   0.744850 0.503430 0.576380 -0.529557
O6    O     O_R   0.699080 0.276500 0.571950 -0.507765
C3    C     C_R   0.627451 0.229429 0.603294 0.542138
O7    O     O_R   0.498860 0.256520 0.419860 -0.537594
O8    O     O_R   0.272490 0.528150 0.429140 -0.538094
C4    C     C_R   0.219933 0.648245 0.402687 0.526934
O9    O     O_R   0.252110 0.740440 0.423010 -0.517254
O10   O     O_R   0.524510 0.695820 0.424050 -0.498269
C5    C     C_R   0.641010 0.622832 0.392026 0.526665
O11   O     O_R   0.736370 0.504260 0.414810 -0.536508
O12   O     O_R   0.691220 0.277270 0.422180 -0.506773
C6    C     C_R   0.578039 0.291997 0.387803 0.559207
Cr1   Cr    Cr6+3 0.392940 0.397950 0.502230 0.986889
Cr2   Cr    Cr6+3 0.398400 0.708500 0.501260 1.004362
Cr3   Cr    Cr6+3 0.708640 0.393530 0.496460 0.987740
O13   O     O_3   0.499990 0.499990 0.499980 -0.263351
C7    C     C_3   0.573612 0.807963 0.782275 -0.194239
H1    H     H_    0.583726 0.901924 0.794720 0.177056
H2    H     H_    0.476381 0.820443 0.807813 0.189543
C8    C     C_3   0.564046 0.796114 0.701225 -0.219545
H3    H     H_    0.456093 0.822052 0.686492 0.170831
H4    H     H_    0.586857 0.873139 0.674744 0.132406
H5    H     H_    0.848544 0.744756 0.775908 0.125491
H6    H     H_    0.840079 0.697134 0.657631 0.112176
C9    C     C_3   0.832177 0.652738 0.769745 -0.224487
C10   C     C_3   0.674214 0.550947 0.799484 -0.254061
C11   C     C_3   0.700326 0.675244 0.811832 0.021514
H7    H     H_    0.766784 0.453251 0.817000 0.138078
H8    H     H_    0.582100 0.564079 0.830865 0.117692
C12   C     C_3   0.670389 0.647424 0.676284 0.038251
C13   C     C_3   0.818263 0.626343 0.690677 -0.247746
C14   C     C_3   0.647811 0.540033 0.720263 -0.219514
H9    H     H_    0.539048 0.557616 0.712624 0.129010
H10   H     H_    0.720058 0.432371 0.701893 0.152472
H11   H     H_    0.925295 0.562856 0.791252 0.168202
H12   H     H_    0.895306 0.518217 0.676316 0.143511
H13   H     H_    0.441994 0.252434 0.700033 0.179816
C15   C     C_R   0.690459 0.162861 0.825305 -0.016192
C16   C     C_R   0.807856 0.139369 0.782601 -0.027387
C17   C     C_R   0.794356 0.141534 0.707501 0.001494
C18   C     C_R   0.545943 0.217247 0.721142 -0.142355
C19   C     C_R   0.559853 0.209356 0.793319 -0.147993
C20   C     C_R   0.937502 0.114429 0.811784 -0.092341
C21   C     C_R   0.054221 0.080240 0.768493 0.198250
C22   C     C_R   0.041382 0.072759 0.695066 -0.134383
C23   C     C_R   0.914214 0.100856 0.665008 -0.145633
C24   C     C_R   0.661025 0.184338 0.677069 -0.004445
H14   H     H_    0.948416 0.127962 0.867626 0.178019
H15   H     H_    0.468001 0.231045 0.824229 0.168610
H16   H     H_    0.130524 0.044317 0.660517 0.144237
H17   H     H_    0.912182 0.087682 0.608256 0.140124
H18   H     H_    0.265021 0.813469 0.704679 0.162110
C25   C     C_R   0.198808 0.654205 0.838498 -0.019283
C26   C     C_R   0.198283 0.543807 0.800088 0.015899
C27   C     C_R   0.192072 0.547551 0.724642 0.017902
C28   C     C_R   0.239731 0.740977 0.729552 -0.155360
C29   C     C_R   0.235393 0.741307 0.802978 -0.155667
C30   C     C_R   0.198257 0.432490 0.835498 -0.121383
C31   C     C_R   0.166720 0.341679 0.799582 -0.098721
C32   C     C_R   0.149109 0.349684 0.726464 -0.129928
C33   C     C_R   0.162845 0.450816 0.688946 -0.134702
C34   C     C_R   0.212602 0.649341 0.688615 -0.006176
H19   H     H_    0.219788 0.415778 0.891618 0.142707
H20   H     H_    0.255412 0.812915 0.832934 0.207481
H21   H     H_    0.146606 0.272998 0.830785 0.207059
H22   H     H_    0.119518 0.281385 0.698772 0.150744
H23   H     H_    0.139608 0.457078 0.633096 0.139129
H24   H     H_    0.427081 0.776773 0.301003 0.157867
C35   C     C_R   0.668707 0.651725 0.169397 -0.004451
C36   C     C_R   0.785396 0.560169 0.212140 0.043384
C37   C     C_R   0.782413 0.588775 0.284811 0.018917
C38   C     C_R   0.529986 0.726886 0.276638 -0.137450
C39   C     C_R   0.539305 0.727239 0.202471 -0.176371
C40   C     C_R   0.905054 0.440642 0.185825 -0.084477
C41   C     C_R   0.025730 0.373954 0.226467 -0.148849
C42   C     C_R   0.026554 0.419213 0.295278 -0.117133
C43   C     C_R   0.908163 0.529500 0.323476 -0.077221
C44   C     C_R   0.652403 0.660171 0.318541 -0.001801
H25   H     H_    0.905674 0.394144 0.134966 0.136781
H26   H     H_    0.446542 0.783387 0.170497 0.115806
H27   H     H_    0.117303 0.286203 0.204507 0.120783
H28   H     H_    0.116830 0.368660 0.328323 0.101185
H29   H     H_    0.912890 0.562057 0.377351 0.126942
H30   H     H_    0.728505 0.326993 0.288635 0.138038
C45   C     C_R   0.654519 0.123037 0.181383 0.017403
C46   C     C_R   0.549350 0.112989 0.221550 0.019811
C47   C     C_R   0.507047 0.184317 0.286386 0.039611
C48   C     C_R   0.677721 0.268522 0.270321 -0.166887
C49   C     C_R   0.709360 0.208436 0.203936 -0.136287
C50   C     C_R   0.480875 0.038059 0.197501 -0.095373
C51   C     C_R   0.366016 0.044161 0.232005 -0.140339
C52   C     C_R   0.323009 0.113927 0.294944 -0.144382
C53   C     C_R   0.388013 0.186423 0.320614 -0.090329
C54   C     C_R   0.586511 0.248637 0.313958 0.004170
H31   H     H_    0.511644 0.974287 0.151593 0.176169
H32   H     H_    0.780531 0.225813 0.170900 0.132438
H33   H     H_    0.308837 0.995389 0.209835 0.106210
H34   H     H_    0.233957 0.117792 0.322403 0.116847
H35   H     H_    0.331925 0.250520 0.365044 0.144685
H36   H     H_    0.279548 0.450439 0.307404 0.128811
C55   C     C_R   0.121489 0.701509 0.189628 0.009696
C56   C     C_R   0.080342 0.820104 0.236187 0.031989
C57   C     C_R   0.073698 0.800509 0.309102 0.023368
C58   C     C_R   0.210106 0.552433 0.288556 -0.151800
C59   C     C_R   0.185165 0.568882 0.216976 -0.146731
C60   C     C_R   0.054522 0.954614 0.215359 -0.100758
C61   C     C_R   0.008476 0.063669 0.264094 -0.156161
C62   C     C_R   0.979532 0.046119 0.333426 -0.105194
C63   C     C_R   0.008871 0.915471 0.355814 -0.076517
C64   C     C_R   0.152645 0.666549 0.334915 -0.003799
H37   H     H_    0.078894 0.979255 0.164096 0.151010
H38   H     H_    0.223303 0.478310 0.182636 0.137830
H39   H     H_    0.991032 0.163665 0.247259 0.112516
H40   H     H_    0.940585 0.132303 0.370452 0.143079
H41   H     H_    0.992106 0.902134 0.411154 0.120679
O14   O     O_R   0.089570 0.825450 0.930590 -0.491598
O15   O     O_R   0.818700 0.054260 0.929860 -0.509960
C65   C     C_R   0.703145 0.103302 0.896396 0.540135
O16   O     O_R   0.606310 0.077010 0.915520 -0.508193
O17   O     O_R   0.646730 0.806540 0.917560 -0.494644
C66   C     C_R   0.724872 0.689096 0.887869 0.541383
O18   O     O_R   0.837290 0.593240 0.915240 -0.525506
O19   O     O_R   0.065320 0.635310 0.931580 -0.514326
C67   C     C_R   0.122438 0.703492 0.906892 0.539491
O20   O     O_R   0.068470 0.828620 0.091850 -0.549379
O21   O     O_R   0.799150 0.057200 0.079350 -0.511991
C68   C     C_R   0.693293 0.058681 0.112075 0.541530
O22   O     O_R   0.585220 0.080180 0.076770 -0.530066
O23   O     O_R   0.627170 0.809480 0.067050 -0.527932
C69   C     C_R   0.696512 0.686238 0.097071 0.529266
O24   O     O_R   0.816200 0.596410 0.076500 -0.525427
O25   O     O_R   0.045770 0.638240 0.081070 -0.495673
C70   C     C_R   0.084130 0.717648 0.115194 0.543519
Cr4   Cr    Cr6+3 0.937880 0.938320 0.007620 1.022567
Cr5   Cr    Cr6+3 0.625560 0.937220 0.994510 1.037070
Cr6   Cr    Cr6+3 0.938080 0.625010 0.001190 1.006395
O26   O     O_3   0.833840 0.833520 0.001110 -0.266112
N1    N     N_R   0.186906 0.049961 0.798998 0.008571
O27   O     O_R   0.287922 0.040287 0.758681 -0.441281
O28   O     O_R   0.204749 0.042370 0.867511 -0.406118

loop_
_geom_bond_atom_site_label_1
_geom_bond_atom_site_label_2
_geom_bond_distance
_ccdc_geom_bond_type
H18   C28   1.072888 S    
C19   H15   1.080792 S    
O24   Cr6   2.073737 S    
C25   C67   1.486320 S    
O17   C66   1.279384 A    
C63   H41   1.083671 S    
C1    C34   1.485907 S    
Cr4   O26   1.969932 S    
C11   C66   1.477863 S    
C51   C52   1.363040 A    
O23   C69   1.324266 A    
O4    Cr2   1.950546 S    
C16   C17   1.422873 A    
O8    Cr1   1.971399 S    
C8    H3    1.102626 S    
O11   Cr3   2.083050 S    
C59   H38   1.084209 S    
O4    C2    1.279752 A    
C12   C13   1.535302 S    
C61   C62   1.383068 A    
Cr5   O26   1.991495 S    
C14   H9    1.112943 S    
C42   H28   1.067372 S    
C37   C43   1.404638 A    
C20   H14   1.076533 S    
C52   C53   1.380221 A    
C17   C23   1.408132 A    
C46   C50   1.422378 A    
C56   C57   1.401591 A    
C22   H16   1.082647 S    
C7    C8    1.540514 S    
C13   H12   1.107080 S    
C58   C59   1.372630 A    
O20   Cr4   2.090205 S    
C57   C64   1.391877 A    
C61   H39   1.073109 S    
C32   H22   1.079606 S    
O16   Cr5   2.087706 S    
O6    C3    1.274134 A    
C7    C11   1.553869 S    
C55   C56   1.446236 A    
C9    C11   1.553453 S    
C33   H23   1.077611 S    
C10   C14   1.535182 S    
H13   C18   1.080091 S    
C47   C53   1.439730 A    
C49   H32   1.083154 S    
C18   C24   1.398559 A    
C7    H2    1.110570 S    
C32   C33   1.391523 A    
C25   C26   1.410498 A    
C50   H31   1.057443 S    
C6    C54   1.456724 S    
C53   H35   1.072259 S    
C60   C61   1.392180 A    
C21   N1    1.436184 S    
C26   C30   1.400354 A    
H30   C48   1.084248 S    
C2    O5    1.277497 A    
C43   H29   1.083543 S    
O1    Cr1   2.093999 S    
C5    O11   1.290854 A    
C22   C23   1.385261 A    
C10   H8    1.113353 S    
O10   Cr2   1.962197 S    
O15   C65   1.272365 A    
Cr1   O13   1.969961 S    
O1    C3    1.263998 A    
C36   C37   1.400455 A    
N1    O28   1.303609 A    
O25   Cr6   1.952869 S    
C45   C46   1.423463 A    
C38   C39   1.403135 A    
O21   C68   1.302186 A    
O19   Cr6   1.954891 S    
C37   C44   1.396523 A    
C21   C22   1.397176 A    
O5    Cr3   2.075970 S    
O15   Cr4   1.972021 S    
C15   C65   1.474600 S    
C41   C42   1.387271 A    
C1    O3    1.282046 A    
C56   C60   1.425417 A    
H6    C13   1.113323 S    
C26   C27   1.424480 A    
C10   H7    1.113744 S    
C35   C36   1.432991 A    
C40   H25   1.081365 S    
C38   C44   1.414406 A    
C27   C33   1.413448 A    
C18   C19   1.368224 A    
C45   C68   1.444530 S    
C29   H20   1.069226 S    
C48   C54   1.388992 A    
O7    Cr1   2.098037 S    
C7    H1    1.113651 S    
C50   C51   1.383910 A    
C28   C29   1.385847 A    
O12   C6    1.329976 A    
C51   H33   1.079706 S    
C30   H19   1.081508 S    
C47   C54   1.448728 A    
C41   H27   1.079406 S    
C8    C12   1.549587 S    
Cr2   O13   2.009704 S    
C42   C43   1.378963 A    
C68   O22   1.270021 A    
C25   C29   1.380883 A    
C3    C24   1.466584 S    
C66   O18   1.280051 A    
C58   C64   1.399270 A    
C15   C16   1.426052 A    
O19   C67   1.274229 A    
H36   C58   1.070043 S    
C9    H11   1.099392 S    
O9    Cr2   2.071828 S    
O2    Cr1   1.978075 S    
C35   C69   1.489992 S    
C55   C59   1.382798 A    
C36   C40   1.419017 A    
C40   C41   1.388054 A    
O6    Cr3   1.964666 S    
C23   H17   1.080451 S    
O8    C4    1.266307 A    
C62   C63   1.383356 A    
C5    C44   1.471817 S    
O21   Cr4   1.974569 S    
O17   Cr5   1.967132 S    
C8    H4    1.113749 S    
C28   C34   1.403528 A    
N1    O27   1.300094 A    
C10   C11   1.540172 S    
C12   C14   1.563130 S    
O2    C1    1.281473 A    
O14   Cr4   2.094309 S    
H5    C9    1.114015 S    
C31   H21   1.064724 S    
C30   C31   1.374967 A    
O22   Cr5   2.089545 S    
C14   H10   1.112520 S    
C27   C34   1.421858 A    
C60   H37   1.074595 S    
C35   C39   1.390042 A    
O7    C6    1.262073 A    
C52   H34   1.083084 S    
C17   C24   1.413751 A    
C46   C47   1.400290 A    
C2    C12   1.473857 S    
C16   C20   1.412262 A    
C31   C32   1.389516 A    
C55   C70   1.448890 S    
C48   C49   1.375256 A    
O12   Cr3   1.957608 S    
O20   C70   1.233670 A    
O25   C70   1.300184 A    
C57   C63   1.413065 A    
C45   C49   1.396661 A    
O3    Cr2   2.085295 S    
C9    C13   1.537565 S    
O23   Cr5   1.964405 S    
C4    O9    1.277476 A    
C20   C21   1.401230 A    
H24   C38   1.083346 S    
Cr6   O26   2.010010 S    
O10   C5    1.277802 A    
C69   O24   1.257056 A    
Cr3   O13   1.992829 S    
O18   Cr6   2.073810 S    
O14   C67   1.286322 A    
C39   H26   1.080189 S    
C62   H40   1.080939 S    
C15   C19   1.395082 A    
C65   O16   1.274019 A    
C4    C64   1.437870 S    
