data_str_m9_o2_o25_f0_sra.sym.196
_audit_creation_date              2013-03-05T16:03:26-0500
_audit_creation_method            fapswitch 2.2
_symmetry_space_group_name_H-M    P1
_symmetry_Int_Tables_number       1
_space_group_crystal_system       triclinic
_cell_length_a                    6.953261
_cell_length_b                    18.186386
_cell_length_c                    20.213842
_cell_angle_alpha                 68.363937
_cell_angle_beta                  90.440201
_cell_angle_gamma                 90.739697
_cell_volume                      2375.83181199

loop_
_atom_site_label
_atom_site_type_symbol
_atom_site_description
_atom_site_fract_x
_atom_site_fract_y
_atom_site_fract_z
_atom_type_partial_charge
O1    O     O_R   0.488960 0.443750 0.941980 -0.581489
O2    O     O_R   0.823890 0.406510 0.087590 -0.593191
O3    O     O_R   0.999680 0.556250 0.058020 -0.578715
C1    C     C_R   0.654995 0.383351 0.114910 0.916994
O4    O     O_R   0.818360 0.434410 0.944340 -0.590423
O5    O     O_R   0.994110 0.584350 0.913750 -0.582827
C2    C     C_R   0.649076 0.419459 0.924683 0.959407
O6    O     O_R   0.494530 0.415650 0.086250 -0.595086
O7    O     O_3   0.662590 0.549160 0.990130 -0.266537
V1    V     V_3+5 0.935320 0.490880 0.001830 1.215180
O8    O     O_R   0.324180 0.593490 0.912410 -0.591895
C3    C     C_R   0.155329 0.617591 0.885658 1.065940
O9    O     O_R   0.329720 0.565590 0.055660 -0.584869
C4    C     C_R   0.162172 0.578442 0.077247 1.052239
V2    V     V_3+5 0.435990 0.509120 0.998170 1.212398
O10   O     O_3   0.158850 0.450840 0.009870 -0.277906
C5    C     C_3   0.962727 0.736151 0.284137 -0.102038
C6    C     C_3   0.112042 0.671344 0.290111 -0.041762
H1    H     H_    0.094180 0.607307 0.322147 0.187900
H2    H     H_    0.821534 0.725996 0.311542 0.156368
H3    H     H_    0.392130 0.706813 0.339888 0.170349
C7    C     C_1   0.155614 0.623802 0.123183 -0.273073
C8    C     C_1   0.110934 0.874702 0.377885 -0.200609
C9    C     C_3   0.991950 0.771744 0.202381 -0.143084
C10   C     C_3   0.141174 0.707566 0.208959 0.127793
C11   C     C_3   0.155004 0.826042 0.211886 -0.076656
C12   C     C_3   0.125913 0.789852 0.293035 0.124122
C13   C     C_3   0.304347 0.761265 0.217866 -0.149154
C14   C     C_3   0.275132 0.725657 0.299635 -0.126826
C15   C     C_1   0.149397 0.661547 0.161794 0.076570
C16   C     C_1   0.117562 0.836311 0.339832 0.095553
H4    H     H_    0.445534 0.771444 0.190453 0.161219
H5    H     H_    0.172282 0.890086 0.179816 0.187847
H6    H     H_    0.874911 0.790580 0.162145 0.153194
C17   C     C_R   0.096068 0.782589 0.877372 0.478550
C18   C     C_R   0.063936 0.860867 0.871942 -0.443373
C19   C     C_R   0.049768 0.922322 0.805797 0.581778
C20   C     C_R   0.067971 0.905751 0.744409 -0.257384
C21   C     C_R   0.099262 0.827940 0.746923 -0.044061
C22   C     C_R   0.113331 0.764666 0.814423 0.029593
C23   C     C_R   0.116049 0.813587 0.682719 -0.169424
C24   C     C_R   0.143350 0.735037 0.685062 -0.107702
C25   C     C_R   0.163880 0.672236 0.752319 0.014792
C26   C     C_R   0.145891 0.686295 0.816734 -0.206333
C27   C     C_R   0.152935 0.716581 0.622190 0.370883
C28   C     C_R   0.197637 0.640411 0.625737 0.403485
C29   C     C_R   0.215570 0.578547 0.692360 0.167276
C30   C     C_R   0.199409 0.595014 0.754286 -0.351021
H7    H     H_    0.050555 0.874077 0.919757 0.148413
H8    H     H_    0.056305 0.955424 0.694430 0.149910
H9    H     H_    0.212039 0.545608 0.804378 0.182735
C31   C     C_R   0.629751 0.091850 0.247577 0.319184
C32   C     C_R   0.655010 0.081276 0.182010 0.096639
C33   C     C_R   0.674800 0.147725 0.118334 0.457685
C34   C     C_R   0.666715 0.223221 0.120147 -0.261698
C35   C     C_R   0.648730 0.236058 0.184449 -0.045971
C36   C     C_R   0.633915 0.169707 0.249861 -0.007848
C37   C     C_R   0.644379 0.314450 0.183578 -0.164428
C38   C     C_R   0.628743 0.327277 0.248253 0.091505
C39   C     C_R   0.617806 0.262027 0.313831 0.050314
C40   C     C_R   0.619871 0.183359 0.315080 -0.216371
C41   C     C_R   0.624429 0.404832 0.248652 -0.364093
C42   C     C_R   0.610360 0.418841 0.312080 0.289090
C43   C     C_R   0.606095 0.354097 0.377476 0.304486
C44   C     C_R   0.607107 0.276960 0.377594 -0.339538
H10   H     H_    0.679434 0.272257 0.069705 0.152653
H11   H     H_    0.628308 0.455720 0.199321 0.173678
H12   H     H_    0.604101 0.228613 0.428677 0.148414
O11   O     O_R   0.770540 0.084530 0.414050 -0.585416
O12   O     O_R   0.445710 0.065660 0.555720 -0.591088
O13   O     O_R   0.270420 0.915650 0.586190 -0.580259
C45   C     C_R   0.614764 0.079631 0.576421 0.955314
O14   O     O_R   0.441140 0.093540 0.412470 -0.591582
O15   O     O_R   0.265820 0.943740 0.441930 -0.568931
C46   C     C_R   0.609993 0.116292 0.384915 1.078353
O16   O     O_R   0.775150 0.056440 0.558310 -0.596398
O17   O     O_3   0.602370 0.950960 0.510050 -0.261897
V3    V     V_3+5 0.329450 0.009140 0.498150 1.227398
O18   O     O_R   0.935790 0.934280 0.444060 -0.578193
C47   C     C_R   0.103665 0.920969 0.423019 1.051397
O19   O     O_R   0.940370 0.906390 0.587310 -0.614680
C48   C     C_R   0.108984 0.882143 0.613875 0.993561
V4    V     V_3+5 0.828810 0.990710 0.501460 1.215529
O20   O     O_3   0.105780 0.049100 0.489960 -0.281162
C49   C     C_3   0.662689 0.323776 0.715097 -0.220788
C50   C     C_3   0.492523 0.272500 0.706696 0.458819
H13   H     H_    0.686120 0.387536 0.683171 0.206206
C51   C     C_1   0.623210 0.124394 0.622635 -0.222600
C52   C     C_1   0.640577 0.371765 0.881066 -0.208106
C53   C     C_3   0.801839 0.255443 0.719531 -0.068783
C54   C     C_3   0.628867 0.205474 0.710438 -0.045405
C55   C     C_3   0.774584 0.218853 0.801774 -0.078822
C56   C     C_3   0.636142 0.286523 0.796820 -0.056542
C57   C     C_3   0.602176 0.168192 0.792182 -0.322058
C58   C     C_3   0.467524 0.236671 0.787197 0.367944
C59   C     C_1   0.626378 0.161171 0.661987 0.189701
C60   C     C_1   0.638089 0.332534 0.843831 0.254250
H14   H     H_    0.576044 0.104554 0.823884 0.201821
H15   H     H_    0.886371 0.195310 0.843128 0.229808
H16   H     H_    0.941752 0.262755 0.691651 0.220220
O21   O     O_3   0.018461 0.999516 0.799221 -0.738036
H17   H     H_    0.008468 0.001708 0.847378 0.335022
O22   O     O_3   0.115887 0.771441 0.555740 -0.734558
H18   H     H_    0.976940 0.783100 0.555672 0.307592
O23   O     O_3   0.220266 0.629047 0.562334 -0.669274
H19   H     H_    0.299082 0.581473 0.570842 0.353894
N1    N     N_R   0.608852 0.365367 0.444256 0.259469
O24   O     O_R   0.715523 0.420846 0.452272 -0.324205
O25   O     O_R   0.528019 0.313275 0.500035 -0.414674
O26   O     O_3   0.596871 0.026964 0.309314 -0.742530
H20   H     H_    0.544847 0.982203 0.297763 0.351321
N2    N     N_R   0.661279 0.003018 0.180501 0.224059
O27   O     O_R   0.534923 0.980727 0.143688 -0.416830
O28   O     O_R   0.787942 0.952758 0.218458 -0.425139
O29   O     O_3   0.704759 0.142087 0.052864 -0.709049
H21   H     H_    0.740269 0.087378 0.059376 0.362588
N3    N     N_R   0.593051 0.498848 0.308832 0.252995
O30   O     O_R   0.471539 0.515536 0.349786 -0.362326
O31   O     O_R   0.677594 0.556646 0.258339 -0.424675
O32   O     O_3   0.339391 0.299088 0.658898 -0.684038
H22   H     H_    0.396921 0.336940 0.614544 0.376316
N4    N     N_R   0.286170 0.227231 0.824809 0.240660
O33   O     O_R   0.185844 0.289147 0.819033 -0.355921
O34   O     O_R   0.235240 0.158138 0.870283 -0.409497
N5    N     N_R   0.240154 0.498081 0.698180 0.249591
O35   O     O_R   0.136213 0.469067 0.659594 -0.344886
O36   O     O_R   0.345257 0.450540 0.749100 -0.394869
O37   O     O_3   0.112231 0.723899 0.943944 -0.790412
H23   H     H_    0.096180 0.746689 0.981184 0.311049

loop_
_geom_bond_atom_site_label_1
_geom_bond_atom_site_label_2
_geom_bond_distance
_ccdc_geom_bond_type
C19   O21   1.380499 S    
C34   C35   1.409472 A    
C51   C59   1.213386 T    
O21   H17   0.991834 S    
O12   V3    1.977489 S    
O14   C46   1.299024 A    
C23   C24   1.426893 A    
C17   C18   1.407546 A    
C1    O6    1.296770 A    
O37   H23   0.991697 S    
N2    O28   1.301180 A    
O19   C48   1.298628 A    
C21   C23   1.420906 A    
O17   V3    2.153079 S    
C40   C46   1.488205 S    
C10   C13   1.539911 S    
C11   C12   1.539587 S    
C19   C20   1.387716 A    
C41   H11   1.082042 S    
C13   C14   1.550821 S    
C9    C11   1.550846 S    
C50   C54   1.533328 S    
N3    O31   1.301671 A    
O5    C3    1.297571 A    
C20   C21   1.416762 A    
C42   N3    1.438708 S    
C12   C14   1.540011 S    
C57   H14   1.110215 S    
V2    O10   2.159208 S    
C2    C52   1.447418 S    
C28   O23   1.381753 S    
C5    H2    1.110432 S    
C35   C36   1.427335 A    
C6    H1    1.110147 S    
O26   H20   0.989582 S    
C27   O22   1.370791 S    
C45   C51   1.448282 S    
C54   C59   1.479833 S    
C28   C29   1.406661 A    
O8    V2    2.003131 S    
C30   H9    1.081686 S    
C29   C30   1.395965 A    
C32   C33   1.409766 A    
N1    O24   1.301468 A    
O1    V2    1.962792 S    
C8    C47   1.452861 S    
C25   C30   1.415111 A    
C45   O16   1.299179 A    
O13   C48   1.298095 A    
C38   C39   1.417866 A    
C56   C58   1.527595 S    
O15   C47   1.298822 A    
O9    C4    1.300896 A    
N1    O25   1.301146 A    
C17   O37   1.379962 S    
C6    C10   1.539698 S    
C49   C56   1.548574 S    
O16   V4    1.979855 S    
C53   H16   1.109754 S    
N2    O27   1.301237 A    
O19   V4    2.003098 S    
C29   N5    1.436568 S    
C49   H13   1.110202 S    
C5    C9    1.550574 S    
C12   C16   1.484428 S    
C5    C12   1.539948 S    
O8    C3    1.300661 A    
C13   H4    1.110445 S    
C9    C10   1.539888 S    
C31   C36   1.433513 A    
C21   C22   1.427754 A    
O4    C2    1.296741 A    
C37   C38   1.415290 A    
C49   C50   1.543897 S    
H3    C14   1.110276 S    
C9    H6    1.110270 S    
O18   C47   1.301111 A    
C52   C60   1.212977 T    
C39   C40   1.421838 A    
C24   C27   1.431315 A    
C8    C16   1.216009 T    
O2    C1    1.298915 A    
C25   C26   1.423111 A    
C41   C42   1.400626 A    
O11   V4    1.995258 S    
V3    O20   1.706109 S    
C11   H5    1.109981 S    
C53   C55   1.558293 S    
V4    O20   2.159304 S    
C31   O26   1.383340 S    
O14   V3    1.997058 S    
C44   H12   1.081722 S    
C33   O29   1.382083 S    
C55   C57   1.556662 S    
C5    C6    1.551234 S    
C6    C14   1.551348 S    
O3    C4    1.299096 A    
C58   N4    1.452762 S    
C39   C44   1.414446 A    
O6    V2    2.000035 S    
O9    V2    1.965714 S    
N5    O35   1.301585 A    
C24   C25   1.424540 A    
N4    O34   1.300400 A    
O2    V1    1.997069 S    
C56   C60   1.479617 S    
C34   H10   1.082393 S    
C31   C32   1.420132 A    
C32   N2    1.435987 S    
C43   N1    1.438066 S    
O7    V1    2.153062 S    
C10   C15   1.484283 S    
C33   C34   1.388795 A    
C18   C19   1.394777 A    
C38   C41   1.414155 A    
C7    C15   1.215978 T    
O1    C2    1.299798 A    
O5    V1    1.997015 S    
O12   C45   1.297897 A    
C49   C53   1.560807 S    
C36   C40   1.432888 A    
C20   H8    1.082093 S    
O23   H19   0.989733 S    
C11   C13   1.550945 S    
C43   C44   1.402078 A    
C4    C7    1.453020 S    
C17   C22   1.431422 A    
O7    V2    1.710628 S    
O4    V1    1.977507 S    
C3    C26   1.491168 S    
O3    V1    1.969235 S    
V1    O10   1.706010 S    
N3    O30   1.301498 A    
C54   C57   1.549123 S    
O18   V4    1.965659 S    
C53   C54   1.548455 S    
C23   C48   1.488118 S    
C55   C56   1.545794 S    
C35   C37   1.419992 A    
O11   C46   1.297061 A    
C57   C58   1.540728 S    
C50   C58   1.523876 S    
C42   C43   1.409492 A    
C27   C28   1.399378 A    
C22   C26   1.429670 A    
O15   V3    1.969078 S    
C1    C37   1.489595 S    
O22   H18   0.991677 S    
N5    O36   1.299830 A    
O17   V4    1.707055 S    
O32   H22   0.990463 S    
C50   O32   1.397868 S    
N4    O33   1.300115 A    
O13   V3    1.997072 S    
C18   H7    1.083381 S    
O29   H21   0.988686 S    
C55   H15   1.104962 S    
