data_str_m2_o14_o18_f0_pcu.sym.40
_audit_creation_date              2012-10-26T18:50:24-0400
_audit_creation_method            fapswitch 2.2
_symmetry_space_group_name_H-M    P1
_symmetry_Int_Tables_number       1
_space_group_crystal_system       triclinic
_cell_length_a                    9.603424
_cell_length_b                    10.800036
_cell_length_c                    15.507582
_cell_angle_alpha                 86.707526
_cell_angle_beta                  73.96843
_cell_angle_gamma                 90.85803
_cell_volume                      1542.50475126

loop_
_atom_site_label
_atom_site_type_symbol
_atom_type_description
_atom_site_fract_x
_atom_site_fract_y
_atom_site_fract_z
_atom_type_partial_charge
C1    C     C_R   0.996916 0.262259 0.504282 0.592697
C2    C     C_R   0.221455 0.505716 0.041685 0.050692
C3    C     C_R   0.323441 0.533534 0.089366 0.032902
C4    C     C_R   0.918098 0.507514 0.671385 0.555130
C5    C     C_R   0.074740 0.482660 0.087493 -0.144372
C6    C     C_R   0.027833 0.484000 0.180658 -0.142986
C7    C     C_R   0.273857 0.530718 0.183698 -0.138892
C8    C     C_R   0.042328 0.110972 0.661292 0.146475
C9    C     C_R   0.100454 0.041888 0.721644 -0.111276
C10   C     C_R   0.128358 0.917294 0.710517 -0.149564
C11   C     C_R   0.094743 0.859380 0.640705 -0.114800
C12   C     C_R   0.668907 0.551349 0.901725 0.034886
C13   C     C_R   0.044108 0.928116 0.575563 0.002244
C14   C     C_R   0.028128 0.057677 0.582186 0.047965
C15   C     C_R   0.989518 0.127455 0.512188 0.003882
C16   C     C_R   0.000558 0.737218 0.501454 0.525390
C17   C     C_R   0.948248 0.068034 0.445153 -0.163745
C18   C     C_R   0.950812 0.940420 0.443700 -0.153437
C19   C     C_R   0.001205 0.870543 0.506728 0.007967
C20   C     C_R   0.701422 0.664339 0.378269 -0.088597
C21   C     C_R   0.656980 0.746034 0.319442 -0.176855
C22   C     C_R   0.512865 0.748119 0.320763 -0.179976
C23   C     C_R   0.769463 0.590555 0.947173 0.050550
C24   C     C_R   0.412457 0.667767 0.380348 -0.091728
C25   C     C_R   0.453047 0.582047 0.440926 0.158102
C26   C     C_R   0.602808 0.581195 0.440415 0.158815
C27   C     C_R   0.547268 0.422529 0.556734 -0.006982
C28   C     C_R   0.082141 0.501474 0.327927 0.530029
C29   C     C_R   0.399431 0.422405 0.556600 -0.007544
C30   C     C_R   0.871376 0.530389 0.767560 -0.009814
C31   C     C_R   0.127698 0.505798 0.229315 -0.004276
C32   C     C_R   0.917903 0.602990 0.901901 -0.143636
C33   C     C_R   0.968796 0.572507 0.812673 -0.153051
C34   C     C_R   0.518133 0.541611 0.947575 0.033250
C35   C     C_R   0.723288 0.520038 0.812315 -0.136233
C36   C     C_3   0.816026 0.200330 0.729169 -0.294940
C37   C     C_R   0.471962 0.557987 0.041521 0.031155
C38   C     C_R   0.575536 0.599265 0.084069 -0.142474
C39   C     C_R   0.721018 0.616552 0.037288 -0.140244
C40   C     C_R   0.411983 0.516993 0.902486 -0.143517
C41   C     C_R   0.266786 0.499832 0.948841 -0.143921
Cu1   Cu    Cu3+1 0.140660 0.499990 0.500010 0.924993
Cu2   Cu    Cu3+1 0.859340 0.500010 0.499990 0.925395
H1    H     H_    0.796578 0.648377 0.072507 0.108737
H2    H     H_    0.735166 0.808491 0.272656 0.115210
H3    H     H_    0.347784 0.543900 0.223583 0.121890
H4    H     H_    0.478393 0.812173 0.274962 0.120384
H5    H     H_    0.304761 0.676815 0.375752 0.181003
H6    H     H_    0.322423 0.358769 0.602982 0.117739
H7    H     H_    0.914246 0.464934 0.214653 0.134156
H8    H     H_    0.189780 0.479351 0.911648 0.104123
H9    H     H_    0.994555 0.636640 0.935591 0.107183
H10   H     H_    0.083428 0.583963 0.778682 0.116270
H11   H     H_    0.652537 0.483974 0.776183 0.111633
H12   H     H_    0.996473 0.461580 0.051336 0.112406
H13   H     H_    0.547245 0.622285 0.153254 0.111827
H14   H     H_    0.436507 0.513131 0.830641 0.100496
H15   H     H_    0.017100 0.269389 0.731681 0.241593
H16   H     H_    0.763871 0.288141 0.750146 0.137042
H17   H     H_    0.794519 0.134243 0.789375 0.136777
H18   H     H_    0.765569 0.162941 0.679249 0.154647
H19   H     H_    0.915800 0.121064 0.392816 0.127638
H20   H     H_    0.113438 0.082380 0.781362 0.103128
H21   H     H_    0.167661 0.863398 0.759506 0.115916
H22   H     H_    0.107371 0.760409 0.639936 0.154049
H23   H     H_    0.917424 0.896057 0.391351 0.111535
H24   H     H_    0.580609 0.359007 0.603243 0.108611
H25   H     H_    0.814172 0.670525 0.372227 0.177251
N1    N     N_R   0.648320 0.501210 0.499140 -0.243413
N2    N     N_R   0.352470 0.501290 0.499110 -0.245336
N3    N     N_2   0.970744 0.221515 0.690360 -0.501625
O1    O     O_R   0.118810 0.319640 0.500010 -0.475934
O2    O     O_R   0.881240 0.319660 0.500000 -0.497482
O3    O     O_R   0.055570 0.499980 0.629840 -0.504810
O4    O     O_R   0.818000 0.500010 0.629830 -0.500282
O5    O     O_R   0.118760 0.680340 0.500000 -0.534060
O6    O     O_R   0.881190 0.680360 0.499990 -0.512683
O7    O     O_R   0.182000 0.499990 0.370170 -0.520860
O8    O     O_R   0.944430 0.500020 0.370160 -0.524416

loop_
_geom_bond_atom_site_label_1
_geom_bond_atom_site_label_2
_ccdc_geom_bond_type
Cu2   O2    S    
C27   C29   A    
C34   C37   A    
C36   H16   S    
C29   H6    S    
C12   C23   A    
C30   C35   A    
C34   C40   A    
C18   C19   A    
C3    C7    A    
C5    C6    A    
H15   N3    S    
C2    C41   A    
Cu2   O8    S    
Cu1   N2    S    
C16   O6    A    
C28   O8    A    
C32   H9    S    
C4    O4    A    
C8    C9    A    
C1    C15   S    
C28   O7    A    
C9    C10   A    
C4    O3    A    
C27   N1    A    
C36   N3    S    
C6    C31   A    
Cu2   N1    S    
C16   O5    A    
C13   C14   A    
C35   H11   S    
C33   H10   S    
C20   H25   S    
C21   H2    S    
Cu2   O4    S    
Cu1   O3    S    
C1    O1    A    
C7    C31   A    
C13   C19   A    
C24   H5    S    
C7    H3    S    
C24   C25   A    
C25   C26   A    
C37   C38   A    
C17   H19   S    
Cu1   O1    S    
C17   C18   A    
C6    H7    S    
C12   C35   A    
C40   C41   A    
Cu1   O7    S    
C22   C24   A    
C2    C5    A    
C18   H23   S    
Cu1   Cu2   S    
C12   C34   A    
C36   H18   S    
C29   N2    A    
C15   C17   A    
C8    N3    S    
C8    C14   A    
C40   H14   S    
C30   C33   A    
C9    H20   S    
C5    H12   S    
C28   C31   S    
C10   H21   S    
C36   H17   S    
C39   H1    S    
Cu2   O6    S    
Cu1   O5    S    
C1    O2    A    
C32   C33   A    
C2    C3    A    
C23   C32   A    
C11   C13   A    
C38   C39   A    
C20   C26   A    
C16   C19   S    
C23   C39   A    
C22   H4    S    
C27   H24   S    
C10   C11   A    
C38   H13   S    
C20   C21   A    
C3    C37   A    
C26   N1    A    
C14   C15   A    
C25   N2    A    
C21   C22   A    
C41   H8    S    
C4    C30   S    
C11   H22   S    
