data_str_m3_o10_o29_f0_pcu.sym.74
_audit_creation_date              2012-12-10T16:59:22-0500
_audit_creation_method            fapswitch 2.2
_symmetry_space_group_name_H-M    P1
_symmetry_Int_Tables_number       1
_space_group_crystal_system       triclinic
_cell_length_a                    7.771177
_cell_length_b                    8.572764
_cell_length_c                    27.702323
_cell_angle_alpha                 91.418422
_cell_angle_beta                  85.981274
_cell_angle_gamma                 93.384301
_cell_volume                      1837.39931411

loop_
_atom_site_label
_atom_site_type_symbol
_atom_type_description
_atom_site_fract_x
_atom_site_fract_y
_atom_site_fract_z
_atom_type_partial_charge
C1    C     C_R   0.545546 0.794648 0.498758 0.974190
C2    C     C_R   0.555619 0.639582 0.128165 -0.108596
C3    C     C_R   0.508687 0.505423 0.646504 -0.039407
C4    C     C_R   0.490879 0.498465 0.353524 -0.041412
C5    C     C_R   0.553421 0.649268 0.026269 0.024004
C6    C     C_R   0.431192 0.382806 0.974444 0.027259
C7    C     C_R   0.405621 0.389058 0.025443 0.032099
C8    C     C_R   0.547518 0.654187 0.975363 0.029522
C9    C     C_R   0.476494 0.518292 0.051326 0.070379
C10   C     C_R   0.494980 0.517848 0.949383 0.073026
C11   C     C_R   0.639943 0.768724 0.052580 -0.348878
C12   C     C_R   0.454454 0.205352 0.501240 0.974550
C13   C     C_R   0.399599 0.243403 0.948029 -0.390074
C14   C     C_R   0.640108 0.766479 0.102853 0.540878
C15   C     C_R   0.407133 0.239863 0.897331 0.598212
C16   C     C_R   0.502616 0.500964 0.593906 0.872266
C17   C     C_R   0.497365 0.499446 0.406097 0.872652
C18   C     C_R   0.591517 0.791912 0.949800 -0.390922
C19   C     C_R   0.307058 0.271229 0.051038 -0.362066
C20   C     C_2   0.569704 0.957931 0.498024 -0.371795
C21   C     C_2   0.430296 0.042068 0.501972 -0.372139
C22   C     C_R   0.569380 0.649206 0.822100 0.543261
C23   C     C_R   0.506100 0.516437 0.898206 -0.207979
C24   C     C_R   0.391566 0.385959 0.178113 0.527361
C25   C     C_R   0.469885 0.380508 0.821432 0.543093
C26   C     C_R   0.553583 0.631631 0.178705 0.538813
C27   C     C_R   0.672194 0.504663 0.717718 -0.091377
C28   C     C_R   0.328287 0.520024 0.282871 -0.090607
C29   C     C_R   0.667328 0.499447 0.667636 -0.207664
C30   C     C_R   0.333991 0.519057 0.332847 -0.212015
C31   C     C_R   0.355529 0.517604 0.676064 -0.198343
C32   C     C_R   0.641356 0.477166 0.323556 -0.201678
C33   C     C_R   0.360893 0.522686 0.726020 -0.098076
C34   C     C_R   0.472077 0.515618 0.102361 -0.194297
C35   C     C_R   0.635091 0.477763 0.273597 -0.093943
C36   C     C_R   0.518891 0.515780 0.746773 0.302461
C37   C     C_R   0.478871 0.500008 0.253296 0.296814
C38   C     C_3   0.786451 0.019067 0.894387 -0.252337
C39   C     C_3   0.189273 0.005340 0.104303 -0.234936
C40   C     C_3   0.656247 0.020937 0.128818 -0.194558
C41   C     C_3   0.229937 0.013100 0.891419 -0.241918
C42   C     C_R   0.562105 0.654079 0.873012 -0.118089
C43   C     C_R   0.386239 0.388024 0.127510 -0.110219
C44   C     C_R   0.606549 0.792526 0.899026 0.592706
C45   C     C_R   0.298588 0.266520 0.101773 0.552571
C46   C     C_R   0.460852 0.377360 0.872224 -0.119250
H1    H     H_    0.231647 0.522690 0.660701 0.161113
H2    H     H_    0.794282 0.498710 0.733997 0.133566
H3    H     H_    0.717203 0.861911 0.034691 0.157765
H4    H     H_    0.375291 0.134040 0.966427 0.153103
H5    H     H_    0.608530 0.902172 0.968910 0.151607
H6    H     H_    0.229092 0.185898 0.031735 0.150686
H7    H     H_    0.701598 0.008399 0.494237 0.181792
H8    H     H_    0.298402 0.991600 0.505759 0.181752
H9    H     H_    0.733915 0.102185 0.922219 0.153556
H10   H     H_    0.879649 0.944588 0.910207 0.109787
H11   H     H_    0.857276 0.089046 0.865406 0.203931
H12   H     H_    0.763718 0.460546 0.338616 0.163532
H13   H     H_    0.315974 0.976897 0.085947 0.110971
H14   H     H_    0.086288 0.996180 0.078355 0.173809
H15   H     H_    0.155714 0.915799 0.132167 0.224515
H16   H     H_    0.528759 0.007069 0.149645 0.201373
H17   H     H_    0.641122 0.066910 0.092245 0.112599
H18   H     H_    0.736438 0.109619 0.148367 0.213427
H19   H     H_    0.129608 0.088839 0.908051 0.105924
H20   H     H_    0.269157 0.931287 0.918525 0.151156
H21   H     H_    0.172265 0.941909 0.862030 0.203510
H22   H     H_    0.013830 0.382700 0.463259 0.191575
H23   H     H_    0.986170 0.617298 0.536742 0.190985
H24   H     H_    0.242387 0.530886 0.748735 0.132612
H25   H     H_    0.751541 0.462053 0.250572 0.146692
H26   H     H_    0.216122 0.535504 0.355177 0.163236
H27   H     H_    0.787215 0.490577 0.645590 0.159721
H28   H     H_    0.207549 0.537715 0.267052 0.144757
N1    N     N_R   0.521878 0.514800 0.798077 -0.379446
N2    N     N_R   0.474164 0.506041 0.202048 -0.369782
N3    N     N_2   0.950320 0.457960 0.486880 -0.176083
N4    N     N_2   0.049680 0.542040 0.513120 -0.176294
O1    O     O_R   0.389250 0.738570 0.503220 -0.611628
O2    O     O_2   0.318313 0.264009 0.203498 -0.494861
O3    O     O_2   0.629124 0.748336 0.204781 -0.495324
O4    O     O_2   0.426197 0.251411 0.795099 -0.463089
O5    O     O_3   0.650976 0.929409 0.873959 -0.499624
O6    O     O_3   0.193919 0.154305 0.127417 -0.556080
O7    O     O_3   0.740600 0.879410 0.126291 -0.575782
O8    O     O_3   0.375364 0.101180 0.871420 -0.495944
O9    O     O_R   0.610750 0.261430 0.496780 -0.611414
O10   O     O_R   0.678390 0.711630 0.494810 -0.628480
O11   O     O_R   0.321610 0.288370 0.505190 -0.628320
O12   O     O_R   0.355440 0.513440 0.575450 -0.621417
O13   O     O_R   0.644560 0.486560 0.424550 -0.620944
O14   O     O_R   0.644590 0.486500 0.567040 -0.629455
O15   O     O_R   0.355410 0.513500 0.432960 -0.630049
O16   O     O_2   0.621574 0.777218 0.796397 -0.461207
Zn1   Zn    Zn3+2 0.306940 0.517990 0.505620 0.951082
Zn2   Zn    Zn3+2 0.693060 0.482010 0.494380 0.951545

loop_
_geom_bond_atom_site_label_1
_geom_bond_atom_site_label_2
_ccdc_geom_bond_type
C27   H2    S    
O10   Zn2   S    
C16   O12   A    
C38   O5    S    
C27   C29   A    
C17   O13   A    
C32   H12   S    
C44   O5    S    
C28   H28   S    
O12   Zn1   S    
C41   H21   S    
N3    N4    D    
O1    Zn1   S    
C41   O8    S    
C23   C42   A    
C35   C37   A    
C39   O6    S    
C5    C11   A    
C21   H8    S    
C11   C14   A    
C29   H27   S    
C41   H20   S    
O14   Zn2   S    
C33   C36   A    
C40   H16   S    
C3    C29   A    
O13   Zn2   S    
C19   H6    S    
C24   O2    S    
C38   H9    S    
C26   N2    A    
C31   C33   A    
C2    C34   A    
C1    O10   A    
C35   H25   S    
O15   Zn1   S    
C23   C46   A    
C31   H1    S    
C22   O16   S    
H23   N4    S    
C42   C44   A    
C22   N1    A    
C18   H5    S    
C39   H15   S    
C32   C35   A    
C12   O11   A    
C24   N2    A    
C41   H19   S    
C12   C21   S    
C8    C18   A    
C25   N1    A    
C40   O7    S    
O11   Zn1   S    
C5    C9    A    
C11   H3    S    
C36   N1    S    
C18   C44   A    
C38   H11   S    
C43   C45   A    
N4    Zn1   S    
C39   H13   S    
O9    Zn2   S    
C2    C26   A    
C3    C31   A    
C40   H17   S    
C4    C32   A    
C33   H24   S    
C15   O8    S    
C4    C17   S    
C37   N2    S    
C16   O14   A    
C26   O3    S    
C7    C19   A    
C13   C15   A    
C25   O4    S    
C1    O1    A    
C45   O6    S    
C17   O15   A    
H22   N3    S    
C7    C9    A    
C1    C20   S    
C12   O9    A    
C34   C43   A    
C14   O7    S    
C20   H7    S    
C6    C10   A    
C5    C8    A    
C30   H26   S    
C19   C45   A    
C6    C7    A    
C10   C23   A    
N3    Zn2   S    
C40   H18   S    
C27   C36   A    
C28   C30   A    
C6    C13   A    
C22   C42   A    
C28   C37   A    
C39   H14   S    
C9    C34   A    
C2    C14   A    
C13   H4    S    
C38   H10   S    
C20   C21   D    
C8    C10   A    
C24   C43   A    
C15   C46   A    
C25   C46   A    
C4    C30   A    
C3    C16   S    
