data_str_m4_o1_o22_f0_acs.sym.40
_audit_creation_date              2012-12-11T14:50:47-0500
_audit_creation_method            fapswitch 2.2
_symmetry_space_group_name_H-M    P1
_symmetry_Int_Tables_number       1
_space_group_crystal_system       triclinic
_cell_length_a                    10.910637
_cell_length_b                    10.980196
_cell_length_c                    18.805669
_cell_angle_alpha                 90.197578
_cell_angle_beta                  89.62564
_cell_angle_gamma                 59.940585
_cell_volume                      1949.83080382

loop_
_atom_site_label
_atom_site_type_symbol
_atom_type_description
_atom_site_fract_x
_atom_site_fract_y
_atom_site_fract_z
_atom_type_partial_charge
C1    C     C_R   0.294738 0.621138 0.615259 0.528659
C2    C     C_R   0.601218 0.089553 0.775972 -0.109844
C3    C     C_R   0.582671 0.121606 0.705232 -0.143672
C4    C     C_R   0.651774 0.618965 0.602690 0.533994
C5    C     C_R   0.676657 0.150940 0.668956 0.014887
C6    C     C_R   0.337656 0.530675 0.739769 -0.094917
C7    C     C_R   0.300357 0.550019 0.812716 0.027544
C8    C     C_R   0.177428 0.673875 0.834249 0.015107
C9    C     C_R   0.096515 0.775469 0.784303 -0.125199
C10   C     C_R   0.133797 0.758132 0.713361 -0.058427
C11   C     C_R   0.253544 0.634948 0.690191 0.041350
C12   C     C_3   0.720143 0.518656 0.800162 -0.257061
C13   C     C_R   0.745674 0.527916 0.272494 -0.136000
C14   C     C_R   0.744880 0.536946 0.199695 -0.127965
C15   C     C_R   0.650424 0.663474 0.166056 0.034078
C16   C     C_R   0.630238 0.224225 0.601411 0.529224
C17   C     C_R   0.541050 0.772402 0.205777 -0.142802
C18   C     C_R   0.534918 0.758049 0.279293 -0.119148
C19   C     C_R   0.643129 0.639518 0.313401 0.043584
C20   C     C_R   0.573357 0.113593 0.293017 0.007241
C21   C     C_R   0.567198 0.113646 0.219648 -0.159044
C22   C     C_R   0.654095 0.146682 0.178657 0.024072
C23   C     C_3   0.697729 0.666760 0.814896 0.009637
C24   C     C_R   0.746873 0.181747 0.211399 -0.152356
C25   C     C_R   0.749703 0.187783 0.284643 -0.168015
C26   C     C_R   0.657898 0.161360 0.325831 0.047532
C27   C     C_R   0.085535 0.803780 0.305417 -0.131357
C28   C     C_R   0.219511 0.649633 0.402436 0.551510
C29   C     C_R   0.064543 0.816529 0.233352 -0.123757
C30   C     C_R   0.104631 0.696390 0.190888 0.037977
C31   C     C_R   0.152039 0.565377 0.221893 -0.140152
C32   C     C_R   0.174322 0.552223 0.294506 -0.128431
C33   C     C_R   0.149118 0.670499 0.335389 0.036107
C34   C     C_3   0.667733 0.642246 0.678876 -0.005198
C35   C     C_R   0.727146 0.044679 0.888674 0.560768
C36   C     C_R   0.721583 0.685453 0.889775 0.592942
C37   C     C_R   0.121355 0.704805 0.906767 0.522786
C38   C     C_R   0.674803 0.105461 0.104733 0.563809
C39   C     C_R   0.693209 0.688502 0.096417 0.568005
C40   C     C_R   0.637647 0.616759 0.389388 0.575251
C41   C     C_R   0.081039 0.716151 0.115630 0.557189
C42   C     C_R   0.620388 0.224535 0.396212 0.575078
C43   C     C_3   0.542755 0.776073 0.792585 -0.096870
C44   C     C_3   0.519965 0.747373 0.714791 -0.135260
C45   C     C_3   0.765481 0.704362 0.689091 -0.194725
C46   C     C_3   0.807581 0.689668 0.768454 -0.100519
C47   C     C_2   0.884458 0.381582 0.701883 0.278815
C48   C     C_2   0.961859 0.573357 0.777288 0.235667
C49   C     C_2   0.391414 0.446338 0.866080 0.260687
C50   C     C_2   0.423865 0.786578 0.839819 0.219276
C51   C     C_2   0.489147 0.064094 0.332827 0.236748
C52   C     C_2   0.432349 0.887149 0.677347 0.227986
C53   C     C_3   0.731101 0.494233 0.719109 -0.100362
C54   C     C_R   0.796776 0.135619 0.703661 -0.158377
C55   C     C_R   0.813063 0.108094 0.776677 -0.143119
C56   C     C_R   0.716145 0.081863 0.813083 0.065637
Cr1   Cr    Cr6+3 0.392930 0.397900 0.502230 1.077091
Cr2   Cr    Cr6+3 0.398240 0.708600 0.501260 1.062702
Cr3   Cr    Cr6+3 0.708800 0.393470 0.496460 1.048519
Cr4   Cr    Cr6+3 0.937620 0.938540 0.007640 1.029086
Cr5   Cr    Cr6+3 0.625150 0.937450 0.994520 1.036036
Cr6   Cr    Cr6+3 0.937990 0.625080 0.001190 1.005163
H1    H     H_    0.533961 0.880249 0.795913 0.100393
H2    H     H_    0.447473 0.839558 0.309472 0.144458
H3    H     H_    0.501240 0.078146 0.194642 0.117070
H4    H     H_    0.818742 0.202009 0.180384 0.121368
H5    H     H_    0.818262 0.220721 0.308769 0.127658
H6    H     H_    0.457325 0.693381 0.714087 0.126393
H7    H     H_    0.019756 0.920655 0.210771 0.141909
H8    H     H_    0.177401 0.473301 0.189906 0.122228
H9    H     H_    0.222181 0.447957 0.317261 0.137458
H10   H     H_    0.801951 0.789390 0.785523 0.076149
H11   H     H_    0.710253 0.817394 0.674788 0.069863
H12   H     H_    0.856978 0.655057 0.651706 0.224029
H13   H     H_    0.814574 0.436285 0.828426 0.121893
H14   H     H_    0.630152 0.509538 0.821318 0.209217
H15   H     H_    0.664686 0.446801 0.705708 0.093712
H16   H     H_    0.935154 0.288059 0.734405 0.093366
H17   H     H_    0.000160 0.514039 0.825557 0.156997
H18   H     H_    0.901389 0.105297 0.804096 0.123632
H19   H     H_    0.432611 0.436927 0.721754 0.131332
H20   H     H_    0.350627 0.445610 0.918730 0.126416
H21   H     H_    0.315279 0.864071 0.827416 0.151130
H22   H     H_    0.826869 0.431969 0.296447 0.128002
H23   H     H_    0.873986 0.150195 0.674614 0.144320
H24   H     H_    0.392373 0.076535 0.310098 0.069840
H25   H     H_    0.062379 0.896241 0.336587 0.132360
H26   H     H_    0.481042 0.926423 0.640535 0.127050
H27   H     H_    0.518419 0.080360 0.802584 0.142813
H28   H     H_    0.487806 0.133625 0.680665 0.159027
H29   H     H_    0.999934 0.865806 0.800867 0.105318
H30   H     H_    0.066603 0.839506 0.676392 0.152064
H31   H     H_    0.827840 0.448344 0.170521 0.132449
H32   H     H_    0.464832 0.869661 0.180771 0.117155
O1    O     O_R   0.507430 0.255570 0.581420 -0.513896
O2    O     O_R   0.837200 0.593290 0.915250 -0.552034
O3    O     O_R   0.065330 0.635370 0.931590 -0.534068
O4    O     O_R   0.280190 0.527390 0.578910 -0.461249
O5    O     O_R   0.068300 0.828790 0.091860 -0.522104
O6    O     O_R   0.798730 0.057480 0.079370 -0.503900
O7    O     O_R   0.584680 0.080480 0.076790 -0.522022
O8    O     O_R   0.626790 0.809640 0.067050 -0.494349
O9    O     O_R   0.816010 0.596460 0.076500 -0.520350
O10   O     O_R   0.045680 0.638310 0.081070 -0.502883
O11   O     O_3   0.833590 0.833690 0.001120 -0.282325
O12   O     O_R   0.524460 0.695920 0.424060 -0.480571
O13   O     O_R   0.260310 0.739740 0.584580 -0.495947
O14   O     O_R   0.532250 0.695150 0.573830 -0.521137
O15   O     O_R   0.744930 0.503430 0.576380 -0.453208
O16   O     O_R   0.699250 0.276390 0.571950 -0.508782
O17   O     O_R   0.499020 0.256400 0.419850 -0.478631
O18   O     O_R   0.272400 0.528160 0.429140 -0.506677
O19   O     O_R   0.251910 0.740570 0.423020 -0.519156
O20   O     O_2   0.955501 0.393505 0.655019 -0.422505
O21   O     O_2   0.048677 0.543119 0.729520 -0.485490
O22   O     O_2   0.515388 0.363739 0.852798 -0.520950
O23   O     O_R   0.736530 0.504260 0.414810 -0.524993
O24   O     O_2   0.446430 0.711823 0.891656 -0.509971
O25   O     O_2   0.529571 0.004495 0.389789 -0.487340
O26   O     O_2   0.305356 0.958331 0.689249 -0.515453
O27   O     O_R   0.691460 0.277160 0.422180 -0.523724
O28   O     O_3   0.499990 0.499990 0.499980 -0.298857
O29   O     O_R   0.089490 0.825610 0.930610 -0.502654
O30   O     O_R   0.818370 0.054540 0.929880 -0.490219
O31   O     O_R   0.605870 0.077310 0.915530 -0.499726
O32   O     O_R   0.646440 0.806700 0.917570 -0.501061

loop_
_geom_bond_atom_site_label_1
_geom_bond_atom_site_label_2
_ccdc_geom_bond_type
Cr3   O27   S    
C47   O20   D    
C55   C56   A    
Cr6   O2    S    
C27   C29   A    
Cr5   O7    S    
C25   H5    S    
C4    O15   A    
Cr4   O5    S    
C9    H29   S    
C37   O3    A    
C16   O16   A    
C7    C8    A    
Cr6   O11   S    
C45   C46   S    
C28   O18   A    
C4    O14   A    
C13   H22   S    
C3    H28   S    
C48   H17   S    
C35   O30   A    
C18   C19   A    
C38   O7    A    
C30   C31   A    
Cr1   O18   S    
C22   C38   S    
Cr3   O16   S    
C23   C43   S    
C45   H11   S    
Cr2   O13   S    
Cr4   O30   S    
C2    H27   S    
C35   O31   A    
Cr1   O28   S    
C37   O29   A    
C31   H8    S    
C8    C9    A    
C5    C16   S    
C1    C11   S    
Cr2   O19   S    
C51   O25   D    
C41   O5    A    
C30   C41   S    
Cr5   O32   S    
Cr5   O11   S    
C9    C10   A    
C14   H31   S    
C29   H7    S    
C12   C53   S    
C24   H4    S    
C47   C53   S    
C44   C52   S    
Cr3   O28   S    
C40   O23   A    
C10   H30   S    
Cr3   O23   S    
C6    H19   S    
C21   C22   A    
C51   H24   S    
C50   H21   S    
C32   H9    S    
Cr6   O10   S    
C46   C48   S    
Cr2   O28   S    
C13   C19   A    
C43   H1    S    
C5    C54   A    
C52   H26   S    
C34   C44   S    
C24   C25   A    
C7    C49   S    
C38   O6    A    
C28   O19   A    
C6    C11   A    
Cr4   O6    S    
C25   C26   A    
C27   C33   A    
C45   H12   S    
Cr2   O12   S    
C49   H20   S    
Cr4   O29   S    
C53   H15   S    
C43   C44   S    
C29   C30   A    
Cr6   O3    S    
C36   O2    A    
C31   C32   A    
C12   C23   S    
C17   C18   A    
C34   C45   S    
C27   H25   S    
C15   C39   S    
C1    O13   A    
C48   O21   D    
C52   O26   D    
C28   C33   S    
C10   C11   A    
C12   H14   S    
C22   C24   A    
C44   H6    S    
C8    C37   S    
C26   C42   S    
C39   O8    A    
C40   O12   A    
Cr6   O9    S    
C15   C17   A    
C54   C55   A    
C16   O1    A    
C21   H3    S    
C35   C56   S    
C50   O24   D    
C46   H10   S    
C42   O17   A    
C36   O32   A    
C3    C5    A    
C1    O4    A    
C54   H23   S    
C43   C50   S    
C39   O9    A    
C6    C7    A    
C20   C51   S    
C41   O10   A    
C32   C33   A    
Cr5   O8    S    
C2    C56   A    
C55   H18   S    
C18   H2    S    
Cr1   O17   S    
C20   C26   A    
Cr1   O4    S    
Cr3   O15   S    
C2    C3    A    
Cr2   O14   S    
C4    C34   S    
C19   C40   S    
C49   O22   D    
C20   C21   A    
C34   C53   S    
C23   C36   S    
Cr1   O1    S    
C12   H13   S    
C23   C46   S    
C14   C15   A    
Cr5   O31   S    
C17   H32   S    
C47   H16   S    
C13   C14   A    
Cr4   O11   S    
C42   O27   A    
