data_str_m3_o14_o16_f0_pcu.sym.77
_audit_creation_date              2012-12-10T17:42:44-0500
_audit_creation_method            fapswitch 2.2
_symmetry_space_group_name_H-M    P1
_symmetry_Int_Tables_number       1
_space_group_crystal_system       triclinic
_cell_length_a                    9.96773
_cell_length_b                    10.613853
_cell_length_c                    13.121195
_cell_angle_alpha                 91.557652
_cell_angle_beta                  70.317645
_cell_angle_gamma                 89.806893
_cell_volume                      1306.46673328

loop_
_atom_site_label
_atom_site_type_symbol
_atom_type_description
_atom_site_fract_x
_atom_site_fract_y
_atom_site_fract_z
_atom_type_partial_charge
C1    C     C_R   0.500845 0.739137 0.497557 0.858086
C2    C     C_R   0.368066 0.470356 0.821914 -0.166582
C3    C     C_R   0.466695 0.862912 0.312976 -0.175977
C4    C     C_R   0.420273 0.489913 0.703809 0.839403
C5    C     C_R   0.450273 0.925970 0.225927 -0.144454
C6    C     C_R   0.451688 0.057099 0.225534 -0.134416
C7    C     C_R   0.469199 0.125574 0.312304 -0.187407
C8    C     C_R   0.484622 0.063019 0.401725 0.092066
C9    C     C_R   0.483607 0.930981 0.402002 0.100558
C10   C     C_R   0.503753 0.871337 0.490653 -0.089289
C11   C     C_R   0.529272 0.938095 0.574778 -0.214523
C12   C     C_R   0.436576 0.472232 0.982258 0.079636
C13   C     C_R   0.529768 0.066821 0.574664 -0.210718
C14   C     C_R   0.505107 0.128206 0.490287 -0.091158
C15   C     C_R   0.800070 0.670917 0.637671 -0.136557
C16   C     C_R   0.501372 0.260760 0.497408 0.853879
C17   C     C_R   0.840814 0.755606 0.704248 -0.192986
C18   C     C_R   0.979998 0.755571 0.703442 -0.199503
C19   C     C_R   0.079327 0.670865 0.635997 -0.177147
C20   C     C_R   0.042462 0.584468 0.566871 0.164003
C21   C     C_R   0.898076 0.584304 0.567314 0.174506
C22   C     C_R   0.957678 0.419654 0.435337 -0.117012
C23   C     C_R   0.465448 0.435918 0.872976 0.069648
C24   C     C_R   0.100423 0.419731 0.435302 -0.131891
C25   C     C_R   0.579227 0.497997 0.296328 0.841899
C26   C     C_R   0.756025 0.338176 0.028286 -0.218947
C27   C     C_R   0.626618 0.473615 0.180598 -0.049546
C28   C     C_R   0.222951 0.487376 0.887467 0.099776
C29   C     C_R   0.190574 0.514968 0.998057 -0.182745
C30   C     C_R   0.297903 0.515820 0.043672 -0.237398
C31   C     C_3   0.101884 0.459357 0.845664 -0.390545
C32   C     C_3   0.111039 0.321631 0.802363 -0.301079
C33   C     C_3   0.039131 0.304791 0.717127 -0.845554
C34   C     C_R   0.543707 0.453361 0.028236 0.088734
C35   C     C_R   0.659812 0.370623 0.975962 0.184552
C36   C     C_R   0.674665 0.318341 0.874162 -0.276389
C37   C     C_R   0.583223 0.355845 0.820573 -0.195583
C38   C     C_R   0.535125 0.510510 0.126891 -0.270836
C39   C     C_R   0.739238 0.389157 0.130795 -0.220400
H1    H     H_    0.808175 0.356801 0.173560 0.153911
H2    H     H_    0.010905 0.820364 0.756498 0.148133
H3    H     H_    0.182575 0.671970 0.643330 0.202727
H4    H     H_    0.757033 0.248837 0.835878 0.157273
H5    H     H_    0.177346 0.353788 0.382442 0.153700
H6    H     H_    0.839868 0.269420 0.992235 0.140475
H7    H     H_    0.453189 0.580119 0.166057 0.141794
H8    H     H_    0.265902 0.536231 0.129692 0.148849
H9    H     H_    0.081533 0.532896 0.049941 0.146746
H10   H     H_    0.598835 0.313774 0.741301 0.165558
H11   H     H_    0.546059 0.890260 0.641594 0.134490
H12   H     H_    0.468055 0.761099 0.308930 0.141846
H13   H     H_    0.945962 0.369293 0.733601 0.260413
H14   H     H_    0.116235 0.324948 0.636497 0.291952
H15   H     H_    0.004736 0.205702 0.714676 0.231109
H16   H     H_    0.223152 0.287999 0.765184 0.217714
H17   H     H_    0.061191 0.259138 0.870845 0.192273
H18   H     H_    0.997200 0.473860 0.910781 0.188392
H19   H     H_    0.101452 0.527259 0.784169 0.225622
H20   H     H_    0.437767 0.872858 0.158148 0.134351
H21   H     H_    0.440422 0.105934 0.157418 0.141630
H22   H     H_    0.472624 0.227126 0.307729 0.147328
H23   H     H_    0.546568 0.118921 0.641500 0.135384
H24   H     H_    0.928146 0.353820 0.382390 0.143749
H25   H     H_    0.690847 0.676125 0.644442 0.198862
H26   H     H_    0.763377 0.821037 0.757467 0.141838
N1    N     N_R   0.856860 0.501200 0.500990 -0.119502
N2    N     N_R   0.142450 0.501280 0.501020 -0.127209
O1    O     O_R   0.385310 0.683220 0.500000 -0.631205
O2    O     O_R   0.614640 0.683250 0.500010 -0.623699
O3    O     O_R   0.328400 0.499950 0.653610 -0.620516
O4    O     O_R   0.557730 0.499970 0.653620 -0.628192
O5    O     O_R   0.385360 0.316750 0.499990 -0.624070
O6    O     O_R   0.614690 0.316780 0.500000 -0.615459
O7    O     O_R   0.442270 0.500030 0.346380 -0.617387
O8    O     O_R   0.671600 0.500050 0.346390 -0.608352
Zn1   Zn    Zn3+2 0.346880 0.499980 0.499990 0.912733
Zn2   Zn    Zn3+2 0.653120 0.500020 0.500010 0.928638

loop_
_geom_bond_atom_site_label_1
_geom_bond_atom_site_label_2
_ccdc_geom_bond_type
C21   N1    A    
C20   N2    A    
O2    Zn2   S    
C35   C36   A    
C16   O5    A    
O5    Zn1   S    
C4    O3    A    
C7    C8    A    
C33   H13   S    
C12   C23   A    
O7    Zn1   S    
C31   H19   S    
C28   C29   A    
C25   O7    A    
C5    C6    A    
C26   C39   A    
C27   C38   A    
C1    O1    A    
C34   C35   A    
C7    H22   S    
C24   N2    A    
C22   H24   S    
C22   N1    A    
C13   H23   S    
C19   C20   A    
C27   C39   A    
C8    C9    A    
C15   H25   S    
C9    C10   A    
C32   H16   S    
C26   H6    S    
C19   H3    S    
C13   C14   A    
C33   H14   S    
C5    H20   S    
C29   H9    S    
C16   O6    A    
C6    H21   S    
C30   H8    S    
C18   H2    S    
C39   H1    S    
C3    H12   S    
C18   C19   A    
C23   C37   A    
C1    O2    A    
C25   O8    A    
C2    C4    S    
C29   C30   A    
C3    C9    A    
C37   H10   S    
C31   C32   S    
C17   C18   A    
O8    Zn2   S    
O3    Zn1   S    
C24   H5    S    
C14   C16   S    
O1    Zn1   S    
C12   C34   A    
O4    Zn2   S    
C33   H15   S    
C15   C17   A    
N1    Zn2   S    
C36   C37   A    
C8    C14   A    
C12   C30   A    
C34   C38   A    
C28   C31   S    
C1    C10   S    
C3    C5    A    
C6    C7    A    
C25   C27   S    
C17   H26   S    
C32   C33   S    
C31   H18   S    
C11   H11   S    
C11   C13   A    
C22   C24   A    
C38   H7    S    
C10   C11   A    
C26   C35   A    
C15   C21   A    
C20   C21   A    
C2    C23   A    
O6    Zn2   S    
C36   H4    S    
C2    C28   A    
N2    Zn1   S    
C32   H17   S    
C4    O4    A    
