data_str_m2_o10_o29_f0_pcu.sym.153
_audit_creation_date              2012-12-10T16:51:14-0500
_audit_creation_method            fapswitch 2.2
_symmetry_space_group_name_H-M    P1
_symmetry_Int_Tables_number       1
_space_group_crystal_system       triclinic
_cell_length_a                    27.799534
_cell_length_b                    8.670072
_cell_length_c                    7.429194
_cell_angle_alpha                 103.02061
_cell_angle_beta                  93.955892
_cell_angle_gamma                 92.38296
_cell_volume                      1737.41077785

loop_
_atom_site_label
_atom_site_type_symbol
_atom_type_description
_atom_site_fract_x
_atom_site_fract_y
_atom_site_fract_z
_atom_type_partial_charge
C1    C     C_R   0.498542 0.199619 0.453153 0.893101
C2    C     C_R   0.501459 0.800381 0.546847 0.893067
C3    C     C_R   0.102311 0.491996 0.516174 -0.104007
C4    C     C_R   0.897690 0.508509 0.484079 -0.103991
C5    C     C_R   0.124733 0.347568 0.454990 -0.108475
C6    C     C_R   0.875265 0.652928 0.545279 -0.108499
C7    C     C_R   0.095298 0.206356 0.391099 0.411481
C8    C     C_R   0.904698 0.794124 0.609328 0.411486
C9    C     C_R   0.131305 0.633349 0.584455 -0.007893
C10   C     C_R   0.868699 0.367159 0.415709 -0.007917
C11   C     C_R   0.354693 0.497953 0.509241 -0.037735
C12   C     C_R   0.645308 0.502199 0.490781 -0.037735
C13   C     C_R   0.970693 0.357848 0.430513 0.072371
C14   C     C_R   0.029309 0.642661 0.569819 0.072360
C15   C     C_R   0.978042 0.646847 0.559536 -0.013051
C16   C     C_R   0.021958 0.353654 0.440864 -0.013044
C17   C     C_R   0.949001 0.504507 0.491441 0.075898
C18   C     C_R   0.051000 0.496000 0.508887 0.075895
C19   C     C_R   0.940042 0.219883 0.359309 -0.171073
C20   C     C_R   0.059964 0.780636 0.640920 -0.171066
C21   C     C_R   0.890278 0.224863 0.352522 -0.044844
C22   C     C_R   0.109728 0.775653 0.647639 -0.044790
C23   C     C_R   0.407505 0.499554 0.502853 0.800355
C24   C     C_R   0.592495 0.500478 0.497151 0.800363
C25   C     C_R   0.045310 0.210766 0.386286 -0.256222
C26   C     C_R   0.954687 0.789715 0.614247 -0.256210
C27   C     C_2   0.497842 0.031673 0.426730 -0.361581
C28   C     C_2   0.502159 0.968327 0.573269 -0.361566
C29   C     C_R   0.175789 0.351211 0.460317 0.581860
C30   C     C_R   0.824206 0.649278 0.539850 0.581908
C31   C     C_R   0.181621 0.630160 0.587166 0.565184
C32   C     C_R   0.818382 0.370344 0.412909 0.565180
C33   C     C_R   0.274618 0.476943 0.350273 -0.087592
C34   C     C_R   0.725379 0.522803 0.649696 -0.087654
C35   C     C_R   0.324612 0.479717 0.344845 -0.202452
C36   C     C_R   0.675383 0.519888 0.655104 -0.202361
C37   C     C_R   0.333805 0.513556 0.679083 -0.210437
C38   C     C_R   0.666205 0.487315 0.321037 -0.210348
C39   C     C_R   0.283725 0.511014 0.684092 -0.090338
C40   C     C_R   0.716286 0.490021 0.316053 -0.090279
C41   C     C_R   0.254063 0.492551 0.519676 0.346001
C42   C     C_R   0.745940 0.507907 0.480391 0.346132
Cu1   Cu    Cu3+1 0.505380 0.517380 0.684380 0.958014
Cu2   Cu    Cu3+1 0.494620 0.482620 0.315620 0.958017
H1    H     H_    0.356071 0.527617 0.807893 0.158353
H2    H     H_    0.643940 0.473702 0.192299 0.158258
H3    H     H_    0.462192 0.378254 0.948472 0.225870
H4    H     H_    0.537808 0.621746 0.051528 0.225850
H5    H     H_    0.267924 0.523067 0.815439 0.140142
H6    H     H_    0.732096 0.478527 0.184794 0.139973
H7    H     H_    0.660366 0.531570 0.787899 0.158205
H8    H     H_    0.339622 0.467470 0.211968 0.158251
H9    H     H_    0.748231 0.536065 0.776981 0.143073
H10   H     H_    0.251765 0.463220 0.222907 0.143182
H11   H     H_    0.868668 0.115208 0.297722 0.210792
H12   H     H_    0.131340 0.885314 0.702367 0.210818
H13   H     H_    0.952891 0.104545 0.306043 0.148617
H14   H     H_    0.047120 0.895993 0.694106 0.148608
H15   H     H_    0.025828 0.097579 0.338721 0.172811
H16   H     H_    0.974166 0.902884 0.662022 0.172826
H17   H     H_    0.493773 0.959864 0.285599 0.179979
H18   H     H_    0.506227 0.040136 0.714400 0.179984
N1    N     N_R   0.202619 0.491016 0.524171 -0.484754
N2    N     N_R   0.797382 0.509479 0.475904 -0.484793
N3    N     N_2   0.486510 0.456430 0.038510 -0.218203
N4    N     N_2   0.513490 0.543570 0.961490 -0.218209
O1    O     O_R   0.503500 0.286120 0.619780 -0.583407
O2    O     O_R   0.496500 0.713880 0.380220 -0.583421
O3    O     O_R   0.494410 0.256780 0.308360 -0.582976
O4    O     O_R   0.505590 0.743220 0.691640 -0.582986
O5    O     O_R   0.434810 0.514700 0.655690 -0.592124
O6    O     O_R   0.565190 0.485300 0.344310 -0.592112
O7    O     O_R   0.425720 0.485350 0.344280 -0.584336
O8    O     O_R   0.574280 0.514650 0.655720 -0.584334
O9    O     O_2   0.198882 0.217513 0.402589 -0.443156
O10   O     O_2   0.801106 0.782959 0.597596 -0.443103
O11   O     O_2   0.790525 0.234947 0.350032 -0.496432
O12   O     O_2   0.209478 0.765563 0.649952 -0.496488
Cl1   Cl    Cl    0.117638 0.016718 0.313614 -0.561161
Cl2   Cl    Cl    0.882353 0.983743 0.686893 -0.561109

loop_
_geom_bond_atom_site_label_1
_geom_bond_atom_site_label_2
_ccdc_geom_bond_type
C29   N1    A    
C30   N2    A    
C8    C26   A    
C14   C18   A    
C34   C42   A    
C21   H11   S    
C39   C41   A    
C19   H13   S    
C19   C21   A    
C2    O2    A    
C9    C22   A    
C33   H10   S    
C3    C18   A    
C11   C37   A    
C27   H17   S    
C1    O1    A    
C32   O11   S    
C12   C36   A    
C1    C27   S    
Cu1   O8    S    
C40   C42   A    
Cu2   N3    S    
C23   O7    A    
C5    C29   A    
C10   C21   A    
C13   C19   A    
C14   C20   A    
C32   N2    A    
C4    C6    A    
C5    C7    A    
C15   C26   A    
C6    C8    A    
C1    O3    A    
Cu1   Cu2   S    
C3    C9    A    
C23   O5    A    
C30   O10   S    
Cu2   O3    S    
C36   H7    S    
C4    C17   A    
C16   C18   A    
C39   H5    S    
C20   C22   A    
Cu1   O4    S    
Cu2   O2    S    
C41   N1    S    
C20   H14   S    
C42   N2    S    
C27   C28   D    
C24   O6    A    
C31   O12   S    
C7    Cl1   S    
C16   C25   A    
C15   C17   A    
Cu1   O5    S    
C6    C30   A    
C4    C10   A    
C3    C5    A    
C22   H12   S    
C29   O9    S    
C31   N1    A    
C12   C24   S    
C7    C25   A    
C13   C17   A    
C33   C41   A    
C11   C35   A    
C37   C39   A    
C38   C40   A    
C24   O8    A    
C26   H16   S    
Cu1   N4    S    
C40   H6    S    
C11   C23   S    
C33   C35   A    
Cu2   O6    S    
C34   C36   A    
C12   C38   A    
Cu2   O7    S    
C38   H2    S    
C9    C31   A    
C10   C32   A    
C34   H9    S    
Cu1   O1    S    
N3    N4    D    
C13   C16   A    
C35   H8    S    
C8    Cl2   S    
C14   C15   A    
C2    C28   S    
C25   H15   S    
H4    N4    S    
C2    O4    A    
C37   H1    S    
H3    N3    S    
C28   H18   S    
