data_str_m2_o1_o13_f0_pcu.sym.98
_audit_creation_date              2012-10-26T21:20:14-0400
_audit_creation_method            fapswitch 2.2
_symmetry_space_group_name_H-M    P1
_symmetry_Int_Tables_number       1
_space_group_crystal_system       triclinic
_cell_length_a                    13.182867
_cell_length_b                    11.063774
_cell_length_c                    9.654924
_cell_angle_alpha                 89.607296
_cell_angle_beta                  96.177185
_cell_angle_gamma                 95.343199
_cell_volume                      1393.92585377

loop_
_atom_site_label
_atom_site_type_symbol
_atom_type_description
_atom_site_fract_x
_atom_site_fract_y
_atom_site_fract_z
_atom_type_partial_charge
C1    C     C_R   0.500489 0.262673 0.501231 0.508350
C2    C     C_R   0.698374 0.490897 0.526201 0.551520
C3    C     C_R   0.811053 0.480862 0.541256 -0.021237
C4    C     C_R   0.186533 0.498413 0.458534 0.005756
C5    C     C_R   0.023674 0.466061 0.315371 0.014093
C6    C     C_R   0.975307 0.527256 0.680708 0.048233
C7    C     C_R   0.127090 0.446435 0.339220 -0.045838
C8    C     C_R   0.869444 0.490980 0.672871 -0.032323
C9    C     C_R   0.134761 0.550778 0.561464 0.001988
C10   C     C_R   0.862333 0.460753 0.423465 0.037807
C11   C     C_R   0.026777 0.525185 0.558598 0.009590
C12   C     C_R   0.499708 0.737663 0.499494 0.525408
C13   C     C_R   0.970011 0.486151 0.431014 0.011605
C14   C     C_R   0.547823 0.071105 0.399017 -0.020247
C15   C     C_R   0.461944 0.931228 0.611164 0.000404
C16   C     C_R   0.541311 0.943627 0.392784 0.005202
C17   C     C_R   0.462502 0.058311 0.612225 0.012665
C18   C     C_2   0.811539 0.375160 0.313982 0.235852
C19   C     C_2   0.190471 0.640518 0.661880 0.227250
C20   C     C_3   0.826933 0.435813 0.801576 -0.328923
C21   C     C_3   0.169452 0.363326 0.242514 -0.385239
C22   C     C_2   0.977780 0.479716 0.169310 0.293346
C23   C     C_R   0.498758 0.872220 0.499081 -0.066753
C24   C     C_2   0.031635 0.553668 0.820048 0.256730
C25   C     C_2   0.607174 0.145084 0.300400 0.303079
C26   C     C_2   0.420655 0.860956 0.728202 0.329500
C27   C     C_2   0.585727 0.887683 0.277979 0.295931
C28   C     C_2   0.415428 0.114435 0.725319 0.289939
C29   C     C_3   0.385004 0.307038 0.124347 -0.327324
C30   C     C_3   0.643866 0.669403 0.873417 -0.282088
C31   C     C_2   0.337405 0.368880 0.830430 0.249925
C32   C     C_2   0.655665 0.643956 0.174191 0.325534
C33   C     C_R   0.504402 0.129022 0.505252 -0.078374
C34   C     C_R   0.433253 0.421321 0.063754 0.130343
C35   C     C_R   0.571518 0.574377 0.935798 0.118908
C36   C     C_R   0.427003 0.430195 0.915634 0.123708
C37   C     C_R   0.572670 0.572174 0.084962 0.133230
C38   C     C_R   0.300466 0.499863 0.473888 0.541067
Cu1   Cu    Cu3+1 0.500000 0.500020 0.640660 0.915814
Cu2   Cu    Cu3+1 0.500000 0.499980 0.359340 0.966434
H1    H     H_    0.833464 0.283019 0.313888 0.092237
H2    H     H_    0.098772 0.507716 0.855011 0.134480
H3    H     H_    0.655288 0.223951 0.339768 0.131707
H4    H     H_    0.365974 0.783210 0.706407 0.148086
H5    H     H_    0.536113 0.835141 0.198856 0.128991
H6    H     H_    0.462474 0.173216 0.801101 0.128053
H7    H     H_    0.316689 0.263524 0.061238 0.159905
H8    H     H_    0.441748 0.239166 0.135676 0.182632
H9    H     H_    0.360635 0.324916 0.225349 0.174153
H10   H     H_    0.629964 0.761109 0.908905 0.162383
H11   H     H_    0.724500 0.654351 0.903260 0.179347
H12   H     H_    0.253977 0.616356 0.733939 0.142133
H13   H     H_    0.639861 0.672085 0.761128 0.194017
H14   H     H_    0.345744 0.324391 0.734425 0.184954
H15   H     H_    0.643817 0.674381 0.274858 0.176779
H16   H     H_    0.881556 0.374822 0.853576 0.125874
H17   H     H_    0.816744 0.506879 0.876851 0.212888
H18   H     H_    0.754841 0.376464 0.777439 0.163465
H19   H     H_    0.108477 0.303237 0.182353 0.130333
H20   H     H_    0.213094 0.417978 0.168230 0.182231
H21   H     H_    0.215589 0.300085 0.305993 0.141769
H22   H     H_    0.000456 0.428001 0.084866 0.090384
N1    N     N_R   0.500030 0.500030 0.852080 -0.274085
N2    N     N_R   0.499970 0.499970 0.147920 -0.263953
O1    O     O_R   0.499990 0.319660 0.618740 -0.543373
O2    O     O_2   0.162241 0.742201 0.667952 -0.439783
O3    O     O_2   0.917820 0.555916 0.140792 -0.367064
O4    O     O_2   0.004310 0.630099 0.894927 -0.416527
O5    O     O_2   0.600491 0.121219 0.176229 -0.462882
O6    O     O_2   0.449649 0.888149 0.849368 -0.489255
O7    O     O_2   0.677785 0.903617 0.269175 -0.452597
O8    O     O_2   0.324418 0.090841 0.737373 -0.461639
O9    O     O_2   0.251049 0.372975 0.863762 -0.570221
O10   O     O_2   0.741888 0.665942 0.140760 -0.421179
O11   O     O_R   0.500010 0.680340 0.381260 -0.544811
O12   O     O_R   0.499990 0.319630 0.381170 -0.524692
O13   O     O_R   0.500010 0.680370 0.618830 -0.533399
O14   O     O_R   0.349000 0.499990 0.599490 -0.544744
O15   O     O_R   0.651000 0.500010 0.400510 -0.475619
O16   O     O_R   0.348990 0.499960 0.361920 -0.500487
O17   O     O_R   0.651010 0.500040 0.638080 -0.527640
O18   O     O_2   0.751250 0.407498 0.219322 -0.433713

loop_
_geom_bond_atom_site_label_1
_geom_bond_atom_site_label_2
_ccdc_geom_bond_type
C30   H11   S    
C24   H2    S    
C20   H16   S    
C25   H3    S    
C14   C33   A    
C1    C33   S    
C29   H9    S    
C12   C23   S    
C28   H6    S    
C8    C20   S    
C30   C35   S    
C29   H7    S    
Cu1   O13   S    
C35   C37   A    
C21   H19   S    
C32   O10   D    
C31   O9    D    
C19   O2    D    
C2    O15   A    
C19   H12   S    
C9    C19   S    
C5    C22   S    
C1    O1    A    
Cu2   O16   S    
C36   N1    A    
C32   H15   S    
C5    C13   A    
C27   H5    S    
C16   C27   S    
C15   C23   A    
C30   H10   S    
C14   C25   S    
Cu1   O1    S    
C28   O8    D    
C17   C33   A    
C4    C7    A    
C30   H13   S    
C29   H8    S    
C26   H4    S    
Cu1   O14   S    
Cu1   O17   S    
C21   H20   S    
C3    C8    A    
C18   H1    S    
C6    C11   A    
C5    C7    A    
C15   C26   S    
C6    C8    A    
C38   O14   A    
C7    C21   S    
C29   C34   S    
Cu2   O12   S    
C22   H22   S    
C1    O12   A    
C6    C24   S    
C12   O13   A    
C34   N2    A    
Cu2   O15   S    
C32   C37   S    
C9    C11   A    
C4    C38   S    
C16   C23   A    
C26   O6    D    
C14   C16   A    
C25   O5    D    
C20   H18   S    
Cu1   Cu2   S    
C37   N2    A    
C27   O7    D    
C15   C17   A    
C17   C28   S    
C21   H21   S    
C10   C13   A    
Cu1   N1    S    
Cu2   N2    S    
Cu2   O11   S    
C2    C3    S    
C4    C9    A    
C3    C10   A    
C11   C13   A    
C38   O16   A    
C10   C18   S    
C18   O18   D    
C34   C36   A    
C31   H14   S    
C22   O3    D    
C24   O4    D    
C12   O11   A    
C31   C36   S    
C2    O17   A    
C35   N1    A    
C20   H17   S    
