data_str_m2_o10_o28_f0_pcu.sym.4
_audit_creation_date              2012-10-26T20:18:17-0400
_audit_creation_method            fapswitch 2.2
_symmetry_space_group_name_H-M    P1
_symmetry_Int_Tables_number       1
_space_group_crystal_system       triclinic
_cell_length_a                    23.474824
_cell_length_b                    8.680949
_cell_length_c                    7.437686
_cell_angle_alpha                 102.962608
_cell_angle_beta                  94.142645
_cell_angle_gamma                 92.329401
_cell_volume                      1470.67387634

loop_
_atom_site_label
_atom_site_type_symbol
_atom_type_description
_atom_site_fract_x
_atom_site_fract_y
_atom_site_fract_z
_atom_type_partial_charge
C1    C     C_R   0.498283 0.199673 0.453232 0.554605
C2    C     C_R   0.706986 0.523564 0.658320 -0.135375
C3    C     C_R   0.233825 0.477221 0.345504 -0.052662
C4    C     C_R   0.766195 0.524346 0.654671 -0.052681
C5    C     C_R   0.209208 0.498003 0.514298 0.246081
C6    C     C_R   0.790795 0.502101 0.485735 0.245905
C7    C     C_2   0.497458 0.031794 0.426861 -0.147806
C8    C     C_2   0.502542 0.968206 0.573139 -0.147808
C9    C     C_R   0.390938 0.499634 0.502494 0.552817
C10   C     C_R   0.609062 0.500381 0.497508 0.552790
C11   C     C_R   0.883285 0.642865 0.526101 0.402128
C12   C     C_R   0.501717 0.800326 0.546768 0.554598
C13   C     C_R   0.116726 0.357231 0.473972 0.402184
C14   C     C_R   0.876851 0.359778 0.445419 0.404507
C15   C     C_R   0.123158 0.640319 0.554602 0.404520
C16   C     C_R   0.936599 0.356117 0.451101 0.030143
C17   C     C_R   0.063410 0.643980 0.548933 0.030120
C18   C     C_R   0.969909 0.500374 0.496032 -0.027633
C19   C     C_R   0.030101 0.499721 0.504020 -0.027640
C20   C     C_R   0.943166 0.645279 0.533265 0.029013
C21   C     C_R   0.056844 0.354814 0.466801 0.028996
C22   C     C_R   0.963701 0.212328 0.414546 -0.125156
C23   C     C_R   0.243961 0.519291 0.679971 -0.051803
C24   C     C_R   0.036308 0.787768 0.585492 -0.125160
C25   C     C_R   0.023232 0.211680 0.422357 -0.130228
C26   C     C_R   0.976778 0.788415 0.577704 -0.130227
C27   C     C_R   0.756018 0.479343 0.319910 -0.051907
C28   C     C_R   0.303318 0.519585 0.676760 -0.140136
C29   C     C_R   0.696660 0.479053 0.323112 -0.140281
C30   C     C_R   0.328373 0.499143 0.507464 0.006478
C31   C     C_R   0.671626 0.500923 0.492549 0.006420
C32   C     C_R   0.293034 0.477967 0.341843 -0.135264
Cu1   Cu    Cu3+1 0.506340 0.517380 0.684380 0.964370
Cu2   Cu    Cu3+1 0.493660 0.482620 0.315620 0.964365
H1    H     H_    0.939038 0.099934 0.379881 0.173851
H2    H     H_    0.688998 0.540798 0.790964 0.131340
H3    H     H_    0.206973 0.461066 0.217247 0.127000
H4    H     H_    0.793063 0.541636 0.783056 0.127295
H5    H     H_    0.492665 0.960184 0.285889 0.136102
H6    H     H_    0.507335 0.039815 0.714111 0.136094
H7    H     H_    0.454929 0.379296 0.948783 0.239636
H8    H     H_    0.545070 0.620704 0.051217 0.239658
H9    H     H_    0.060972 0.900162 0.620147 0.173849
H10   H     H_    0.042775 0.098808 0.393128 0.164964
H11   H     H_    0.957235 0.901286 0.606939 0.164974
H12   H     H_    0.224939 0.535380 0.810813 0.124896
H13   H     H_    0.775022 0.462109 0.188957 0.125249
H14   H     H_    0.329479 0.536052 0.806415 0.130870
H15   H     H_    0.670482 0.461406 0.193339 0.131089
H16   H     H_    0.311037 0.461895 0.209310 0.131229
N1    N     N_R   0.851650 0.501606 0.483428 -0.404014
N2    N     N_R   0.148357 0.498491 0.516621 -0.404048
N3    N     N_2   0.484110 0.456420 0.038520 -0.258244
N4    N     N_2   0.515890 0.543580 0.961480 -0.258235
O1    O     O_R   0.504120 0.286130 0.619770 -0.504144
O2    O     O_2   0.143214 0.219859 0.438275 -0.470307
O3    O     O_2   0.844156 0.223010 0.404077 -0.467414
O4    O     O_2   0.155855 0.777084 0.595942 -0.467294
O5    O     O_R   0.495880 0.713870 0.380230 -0.504146
O6    O     O_R   0.493410 0.256770 0.308360 -0.494659
O7    O     O_R   0.506590 0.743230 0.691640 -0.494665
O8    O     O_R   0.423230 0.514630 0.655730 -0.507133
O9    O     O_R   0.576770 0.485370 0.344270 -0.507156
O10   O     O_R   0.412530 0.485280 0.344320 -0.502243
O11   O     O_R   0.587470 0.514720 0.655680 -0.502242
O12   O     O_2   0.856800 0.780243 0.561790 -0.470426

loop_
_geom_bond_atom_site_label_1
_geom_bond_atom_site_label_2
_ccdc_geom_bond_type
C27   H13   S    
Cu1   O1    S    
C2    C4    A    
C14   O3    S    
C5    N2    S    
C22   H1    S    
C6    N1    S    
C27   C29   A    
C13   N2    A    
C14   N1    A    
C5    C23   A    
C11   O12   S    
C8    C12   S    
C13   O2    S    
C32   H16   S    
C10   O9    A    
C28   C30   A    
Cu1   Cu2   S    
C1    O1    A    
Cu1   O11   S    
C7    C8    D    
C29   C31   A    
C23   H12   S    
C29   H15   S    
N3    N4    D    
H8    N4    S    
C9    O10   A    
Cu2   O6    S    
C12   O7    A    
C24   C26   A    
H7    N3    S    
C3    C32   A    
C20   C26   A    
C9    C30   S    
C25   H10   S    
Cu2   O10   S    
Cu2   O9    S    
C17   C19   A    
C4    H4    S    
C18   C19   A    
C18   C20   A    
Cu2   O5    S    
C15   O4    S    
C14   C16   A    
C11   C20   A    
C1    O6    A    
C17   C24   A    
C11   N1    A    
C13   C21   A    
C9    O8    A    
C30   C32   A    
C3    C5    A    
C3    H3    S    
Cu2   N3    S    
Cu1   O7    S    
C4    C6    A    
C10   O11   A    
C2    H2    S    
Cu1   N4    S    
C15   C17   A    
C24   H9    S    
C7    H5    S    
C28   H14   S    
C21   C25   A    
C8    H6    S    
C26   H11   S    
C1    C7    S    
C15   N2    A    
C23   C28   A    
C12   O5    A    
Cu1   O8    S    
C10   C31   S    
C16   C18   A    
C6    C27   A    
C16   C22   A    
C2    C31   A    
C19   C21   A    
C22   C25   A    
