data_str_m3_o41_o41_f0_fof.sym.20
_audit_creation_date              2012-12-10T16:39:32-0500
_audit_creation_method            fapswitch 2.2
_symmetry_space_group_name_H-M    P1
_symmetry_Int_Tables_number       1
_space_group_crystal_system       triclinic
_cell_length_a                    16.87153
_cell_length_b                    16.877913
_cell_length_c                    16.870874
_cell_angle_alpha                 65.786383
_cell_angle_beta                  65.794668
_cell_angle_gamma                 65.764477
_cell_volume                      3822.89978783

loop_
_atom_site_label
_atom_site_type_symbol
_atom_type_description
_atom_site_fract_x
_atom_site_fract_y
_atom_site_fract_z
_atom_type_partial_charge
C1    C     C_R   0.308609 0.011378 0.434636 0.023667
C2    C     C_R   0.330742 0.462429 0.932130 0.024903
C3    C     C_R   0.550204 0.416875 0.971435 -0.048143
C4    C     C_R   0.032250 0.448489 0.582297 -0.051923
C5    C     C_R   0.045477 0.523309 0.397352 -0.047755
C6    C     C_R   0.069250 0.668879 0.537219 0.027776
C7    C     C_R   0.969017 0.321860 0.453032 0.030545
C8    C     C_R   0.446762 0.016875 0.444381 0.087949
C9    C     C_R   0.535087 0.050894 0.532810 0.086115
C10   C     C_R   0.017267 0.444078 0.446802 0.090059
C11   C     C_R   0.051156 0.532575 0.535162 0.089387
C12   C     C_R   0.466372 0.464133 0.951859 0.086705
C13   C     C_R   0.554739 0.552497 0.985840 0.088460
C14   C     C_R   0.965674 0.179338 0.436807 0.853941
C15   C     C_R   0.672843 0.061330 0.538191 0.026604
C16   C     C_R   0.038057 0.820485 0.562010 0.894833
C17   C     C_R   0.179488 0.437914 0.962137 0.854227
C18   C     C_R   0.820645 0.563029 0.034786 0.895081
C19   C     C_R   0.436856 0.965569 0.179352 0.895652
C20   C     C_R   0.562005 0.038014 0.820510 0.853666
C21   C     C_R   0.569403 0.824533 0.018487 0.890450
C22   C     C_R   0.437099 0.179035 0.964169 0.876421
C23   C     C_R   0.036115 0.562782 0.820951 0.877275
C24   C     C_R   0.981834 0.430530 0.175373 0.889362
C25   C     C_R   0.820922 0.036118 0.562799 0.882167
C26   C     C_R   0.011604 0.434458 0.308645 0.022174
C27   C     C_R   0.175372 0.981812 0.430537 0.885948
C28   C     C_R   0.403025 0.997903 0.401031 0.070047
C29   C     C_R   0.581465 0.061184 0.579886 0.071273
C30   C     C_R   0.998258 0.400778 0.403049 0.068010
C31   C     C_R   0.061332 0.579722 0.581548 0.073349
C32   C     C_R   0.419594 0.417922 0.940934 0.070175
C33   C     C_R   0.598330 0.596401 0.004237 0.070670
C34   C     C_R   0.268120 0.983625 0.394136 -0.103973
C35   C     C_R   0.722279 0.058810 0.591243 -0.121071
C36   C     C_R   0.983763 0.394065 0.268126 -0.105654
C37   C     C_R   0.061478 0.538062 0.672926 0.024268
C38   C     C_R   0.058872 0.591165 0.722337 -0.119850
C39   C     C_R   0.408636 0.277540 0.941998 -0.119930
C40   C     C_R   0.605720 0.731644 0.017209 -0.104415
C41   C     C_R   0.590667 0.061747 0.720974 -0.116422
C42   C     C_R   0.404938 0.956869 0.276197 -0.125463
C43   C     C_R   0.723629 0.594844 0.044248 -0.125530
C44   C     C_R   0.278996 0.409151 0.938776 -0.116851
C45   C     C_R   0.061731 0.720903 0.590727 -0.126616
C46   C     C_R   0.957112 0.276102 0.404900 -0.114705
C47   C     C_R   0.441476 0.085551 0.701366 -0.123675
C48   C     C_R   0.461390 0.326627 0.940644 0.026968
C49   C     C_R   0.548007 0.955834 0.290393 -0.123183
C50   C     C_R   0.085533 0.701202 0.441585 -0.128879
C51   C     C_R   0.956107 0.290238 0.548036 -0.122751
C52   C     C_R   0.708804 0.451484 0.046989 -0.125266
C53   C     C_R   0.298409 0.558026 0.915828 -0.120564
C54   C     C_R   0.258889 0.052284 0.506642 -0.129822
C55   C     C_R   0.711426 0.061633 0.445714 -0.131712
C56   C     C_R   0.553646 0.287835 0.941300 -0.129986
C57   C     C_R   0.493086 0.740441 0.949025 -0.127730
C58   C     C_R   0.052464 0.506447 0.258959 -0.134120
C59   C     C_R   0.565008 0.690885 0.990058 0.023429
C60   C     C_R   0.061792 0.445593 0.711548 -0.123622
C61   C     C_R   0.316910 0.955568 0.317654 -0.286834
C62   C     C_R   0.679607 0.062922 0.679309 -0.281573
C63   C     C_R   0.955758 0.317594 0.316883 -0.291247
C64   C     C_R   0.062916 0.679233 0.679668 -0.274071
C65   C     C_R   0.320778 0.320367 0.937243 -0.280111
C66   C     C_R   0.682301 0.682994 0.045164 -0.288326
C67   C     C_R   0.671602 0.036417 0.405351 -0.165233
C68   C     C_R   0.302701 0.062893 0.554955 -0.152800
C69   C     C_R   0.036533 0.405248 0.671745 -0.181425
C70   C     C_R   0.537131 0.069224 0.669005 0.025213
C71   C     C_R   0.063159 0.554682 0.302773 -0.153665
C72   C     C_R   0.444534 0.696585 0.938943 -0.153508
C73   C     C_R   0.593497 0.327410 0.967349 -0.170034
C74   C     C_R   0.589689 0.982873 0.327763 -0.164062
C75   C     C_R   0.393944 0.080934 0.652103 -0.146741
C76   C     C_R   0.347406 0.605393 0.921008 -0.145392
C77   C     C_R   0.671015 0.409467 0.020783 -0.166887
C78   C     C_R   0.982972 0.327694 0.589802 -0.172510
C79   C     C_R   0.081038 0.651870 0.394057 -0.149359
C80   C     C_R   0.720018 0.014498 0.322950 0.570014
C81   C     C_R   0.453031 0.968675 0.322064 0.034035
C82   C     C_R   0.253554 0.091375 0.633957 0.553202
C83   C     C_R   0.014220 0.323091 0.720296 0.598064
C84   C     C_R   0.091635 0.633659 0.253634 0.554343
C85   C     C_R   0.365663 0.745764 0.910192 0.563859
C86   C     C_R   0.675490 0.278772 0.990114 0.570850
C87   C     C_R   0.680491 0.984502 0.286318 0.570368
C88   C     C_R   0.298959 0.098455 0.683130 0.586969
C89   C     C_R   0.316435 0.700354 0.903288 0.589986
C90   C     C_R   0.712070 0.318406 0.020037 0.570185
C91   C     C_R   0.984024 0.286613 0.680801 0.615914
C92   C     C_R   0.677387 0.546537 0.033366 0.034309
C93   C     C_R   0.098529 0.682893 0.299088 0.567926
C94   C     C_R   0.539522 0.010352 0.407043 -0.053047
C95   C     C_R   0.442281 0.057969 0.570122 -0.056643
C96   C     C_R   0.010676 0.406804 0.539583 -0.056893
C97   C     C_R   0.058230 0.569846 0.442362 -0.056250
C98   C     C_R   0.429136 0.556970 0.944503 -0.057033
C99   C     C_R   0.591832 0.459618 0.993018 -0.052682
C100  C     C_R   0.582217 0.031977 0.448702 -0.048460
C101  C     C_R   0.397288 0.045149 0.523609 -0.045761
C102  C     C_R   0.475618 0.601960 0.957300 -0.046260
F1    F     F_    0.249840 0.122770 0.760830 -0.583575
F2    F     F_    0.334376 0.837616 0.891655 -0.595715
F3    F     F_    0.109745 0.665137 0.161807 -0.601287
F4    F     F_    0.017068 0.280586 0.807503 -0.561818
F5    F     F_    0.729955 0.960363 0.208549 -0.585127
F6    F     F_    0.122651 0.760660 0.250027 -0.598375
F7    F     F_    0.959034 0.209371 0.730551 -0.562494
F8    F     F_    0.789499 0.268803 0.044833 -0.576709
F9    F     F_    0.238839 0.749464 0.878736 -0.592440
F10   F     F_    0.161799 0.109114 0.665607 -0.590301
F11   F     F_    0.807091 0.017702 0.280238 -0.585653
F12   F     F_    0.717915 0.191466 0.987629 -0.576025
H1    H     H_    0.283838 0.938826 0.285826 0.203921
H2    H     H_    0.923758 0.237471 0.591421 0.218367
H3    H     H_    0.761905 0.408411 0.079066 0.218122
H4    H     H_    0.237177 0.597066 0.895481 0.216372
H5    H     H_    0.185949 0.078777 0.525555 0.222446
H6    H     H_    0.771985 0.081611 0.402723 0.222951
H7    H     H_    0.597088 0.227491 0.921094 0.223356
H8    H     H_    0.474516 0.813288 0.921864 0.222929
H9    H     H_    0.078816 0.525442 0.186032 0.224413
H10   H     H_    0.081738 0.402610 0.772155 0.226267
H11   H     H_    0.718889 0.058801 0.718871 0.205499
H12   H     H_    0.938957 0.285828 0.283806 0.201743
H13   H     H_    0.058757 0.718795 0.718950 0.207158
H14   H     H_    0.281424 0.281317 0.940584 0.207808
H15   H     H_    0.714361 0.716274 0.061350 0.201107
H16   H     H_    0.402557 0.105258 0.762940 0.215877
H17   H     H_    0.591417 0.923514 0.237572 0.218491
H18   H     H_    0.105107 0.762816 0.402676 0.217107
O1    O     O_R   0.982940 0.138950 0.510160 -0.640149
O2    O     O_R   0.982940 0.510160 0.138950 -0.634499
O3    O     O_R   0.861050 0.017060 0.489840 -0.628449
O4    O     O_R   0.138950 0.982940 0.510160 -0.630734
O5    O     O_R   0.867700 0.025880 0.612340 -0.615242
O6    O     O_R   0.132300 0.974120 0.387660 -0.620948
O7    O     O_R   0.025880 0.612340 0.867700 -0.616506
O8    O     O_R   0.974120 0.387660 0.132300 -0.618457
O9    O     O_R   0.612340 0.867700 0.025880 -0.619818
O10   O     O_R   0.387660 0.132300 0.974120 -0.616453
O11   O     O_R   0.387660 0.974120 0.132300 -0.602230
O12   O     O_R   0.017060 0.861050 0.489840 -0.621502
O13   O     O_R   0.612340 0.025880 0.867700 -0.620570
O14   O     O_R   0.132300 0.387660 0.974120 -0.617808
O15   O     O_R   0.867700 0.612340 0.025880 -0.605591
O16   O     O_R   0.974120 0.132300 0.387660 -0.617390
O17   O     O_R   0.025880 0.867700 0.612340 -0.604813
O18   O     O_R   0.138950 0.510160 0.982940 -0.635255
O19   O     O_R   0.861050 0.489840 0.017060 -0.623966
O20   O     O_R   0.510160 0.982940 0.138950 -0.625129
O21   O     O_R   0.489840 0.017060 0.861050 -0.634315
O22   O     O_R   0.489840 0.861050 0.017060 -0.630873
O23   O     O_R   0.510160 0.138950 0.982940 -0.629360
O24   O     O_R   0.017060 0.489840 0.861050 -0.628753
Zn1   Zn    Zn3+2 0.004880 0.004880 0.583590 1.087547
Zn2   Zn    Zn3+2 0.995120 0.995120 0.416410 1.080458
Zn3   Zn    Zn3+2 0.004880 0.583590 0.004880 1.075027
Zn4   Zn    Zn3+2 0.995120 0.416410 0.995120 1.090564
Zn5   Zn    Zn3+2 0.583590 0.004880 0.004880 1.083791
Zn6   Zn    Zn3+2 0.416410 0.995120 0.995120 1.086628

loop_
_geom_bond_atom_site_label_1
_geom_bond_atom_site_label_2
_ccdc_geom_bond_type
O9    Zn5   S    
C6    C45   A    
C39   C65   A    
C74   C94   A    
C17   O18   A    
O15   Zn3   S    
C50   C79   A    
C72   C85   A    
C75   C95   A    
C14   C46   S    
O23   Zn5   S    
C49   H17   S    
C58   H9    S    
C24   C36   S    
O13   Zn5   S    
C27   O4    A    
C23   O7    A    
C16   O12   A    
C79   C93   A    
C80   C87   A    
C93   F6    S    
C58   C71   A    
C57   C59   A    
O14   Zn4   S    
C76   C98   A    
C14   O16   A    
C2    C32   A    
C29   C70   A    
C49   C81   A    
C60   H10   S    
C10   C30   A    
C6    C31   A    
C3    C12   A    
C57   H8    S    
C4    C96   A    
C78   C96   A    
C61   H1    S    
C1    C28   A    
C21   O22   A    
C16   O17   A    
C94   C100  A    
C74   C87   A    
C36   C63   A    
C8    C101  A    
C9    C95   A    
O11   Zn6   S    
C12   C98   A    
O20   Zn5   S    
C19   C42   S    
C9    C29   A    
C76   C89   A    
C22   O23   A    
C66   H15   S    
C52   H3    S    
O2    Zn3   S    
C11   C31   A    
C33   C59   A    
C40   C59   A    
C40   C66   A    
C54   H5    S    
C12   C32   A    
C32   C48   A    
O3    Zn2   S    
C44   C65   A    
C42   C81   A    
C41   C62   A    
C20   C41   S    
C15   C35   A    
C4    C69   A    
O22   Zn6   S    
C1    C34   A    
C15   C29   A    
C38   C64   A    
C55   H6    S    
C27   C34   S    
C77   C90   A    
C21   O9    A    
C27   O6    A    
O18   Zn3   S    
C47   H16   S    
C37   C60   A    
C7    C46   A    
O24   Zn4   S    
C8    C94   A    
C68   C101  A    
C18   O15   A    
C86   C90   A    
C33   C92   A    
C2    C44   A    
C85   C89   A    
C53   H4    S    
C98   C102  A    
C11   C97   A    
C34   C61   A    
C24   O8    A    
C31   C37   A    
C15   C55   A    
C13   C99   A    
C25   O5    A    
C1    C54   A    
C65   H14   S    
C47   C70   A    
C13   C33   A    
C37   C38   A    
C69   C83   A    
O6    Zn2   S    
C10   C96   A    
C64   H13   S    
C22   O10   A    
C19   O20   A    
C87   F5    S    
O16   Zn2   S    
C6    C50   A    
C4    C11   A    
C26   C58   A    
C42   C61   A    
C85   F2    S    
C50   H18   S    
C67   C100  A    
C25   C35   S    
O4    Zn1   S    
C26   C36   A    
C5    C97   A    
C26   C30   A    
C9    C100  A    
C8    C28   A    
C52   C92   A    
C53   C76   A    
C84   F3    S    
C90   F8    S    
O12   Zn2   S    
C52   C77   A    
C88   F1    S    
C71   C84   A    
C24   O2    A    
C48   C56   A    
C19   O11   A    
C56   C73   A    
C28   C81   A    
C20   O13   A    
C79   C97   A    
C67   C80   A    
C51   H2    S    
C20   O21   A    
C2    C53   A    
C16   C45   S    
O10   Zn6   S    
C62   H11   S    
C55   C67   A    
C14   O1    A    
C78   C91   A    
C23   C38   S    
C83   C91   A    
C89   F9    S    
C45   C64   A    
C95   C101  A    
C43   C92   A    
C83   F4    S    
O5    Zn1   S    
O21   Zn6   S    
C86   F12   S    
C68   C82   A    
C56   H7    S    
C91   F7    S    
C17   O14   A    
C17   C44   S    
C7    C51   A    
C5    C10   A    
C5    C71   A    
C18   C43   S    
O19   Zn4   S    
O7    Zn3   S    
C46   C63   A    
C72   C102  A    
C60   C69   A    
C43   C66   A    
C82   C88   A    
C22   C39   S    
C77   C99   A    
C35   C62   A    
O1    Zn1   S    
C84   C93   A    
C57   C72   A    
C3    C73   A    
C73   C86   A    
C51   C78   A    
C63   H12   S    
C47   C75   A    
C3    C99   A    
C75   C88   A    
C54   C68   A    
C80   F11   S    
C25   O3    A    
C7    C30   A    
C49   C74   A    
C39   C48   A    
C13   C102  A    
C23   O24   A    
O17   Zn1   S    
O8    Zn4   S    
C18   O19   A    
C82   F10   S    
C41   C70   A    
C21   C40   S    
