data_str_m12_o9_o22_f0_bcu.sym.87
_audit_creation_date              2013-03-05T15:58:07-0500
_audit_creation_method            fapswitch 2.2
_symmetry_space_group_name_H-M    P1
_symmetry_Int_Tables_number       1
_space_group_crystal_system       triclinic
_cell_length_a                    14.924809
_cell_length_b                    14.875965
_cell_length_c                    15.190818
_cell_angle_alpha                 110.755421
_cell_angle_beta                  108.372882
_cell_angle_gamma                 108.707798
_cell_volume                      2613.63049619

loop_
_atom_site_label
_atom_site_type_symbol
_atom_site_description
_atom_site_fract_x
_atom_site_fract_y
_atom_site_fract_z
_atom_type_partial_charge
C1    C     C_R   0.976239 0.251144 0.063412 -0.121109
H1    H     H_    0.941789 0.238189 0.113192 0.097008
N1    N     N_R   0.947080 0.293830 0.002870 -0.044556
C2    C     C_R   0.314093 0.761269 0.222567 -0.136776
H2    H     H_    0.379136 0.782289 0.203600 0.096763
N2    N     N_R   0.208950 0.706170 0.152110 -0.041608
C3    C     C_R   0.209018 0.408596 0.902000 -0.152222
H3    H     H_    0.179567 0.323576 0.845382 0.109696
N3    N     N_R   0.153670 0.443180 0.946090 -0.039262
C4    C     C_R   0.997351 0.592964 0.298984 -0.133268
H4    H     H_    0.023070 0.677955 0.352713 0.105354
N4    N     N_R   0.002360 0.556820 0.208890 -0.041317
C5    C     C_R   0.299079 0.591125 0.994726 -0.141239
H5    H     H_    0.353467 0.676457 0.025874 0.084336
N5    N     N_R   0.210070 0.556820 0.002870 -0.033192
C6    C     C_R   0.910249 0.409677 0.210758 -0.158706
H6    H     H_    0.858804 0.325144 0.184469 0.113178
N6    N     N_R   0.945960 0.443180 0.152110 -0.038390
C7    C     C_R   0.219207 0.751225 0.311633 -0.116116
H7    H     H_    0.196375 0.758149 0.373301 0.110977
N7    N     N_R   0.151710 0.706170 0.208890 -0.044788
C8    C     C_R   0.071666 0.256645 0.975858 -0.133302
H8    H     H_    0.130000 0.256542 0.949281 0.131105
N8    N     N_R   0.004320 0.293830 0.946090 -0.046382
C9    C     C_R   0.056722 0.228392 0.049866 0.054927
C10   C     C_R   0.321577 0.791518 0.323236 0.055322
C11   C     C_R   0.299747 0.499759 0.929573 0.025215
C12   C     C_R   0.942607 0.502656 0.303430 0.063298
C13   C     C_R   0.687620 0.408451 0.932798 -0.102686
H9    H     H_    0.625395 0.323319 0.884662 0.100209
N9    N     N_R   0.789930 0.443180 0.997130 -0.044297
C14   C     C_R   0.036921 0.595054 0.782209 -0.103379
H10   H     H_    0.067609 0.680852 0.806422 0.117258
N10   N     N_R   0.054040 0.556820 0.847890 -0.044485
C15   C     C_R   0.792025 0.196513 0.699831 -0.105190
H11   H     H_    0.818847 0.170276 0.641795 0.094218
N11   N     N_R   0.848290 0.293830 0.791110 -0.039192
C16   C     C_R   0.999850 0.803730 0.095615 -0.139960
H12   H     H_    0.980042 0.831768 0.159069 0.111319
N12   N     N_R   0.995680 0.706170 0.053910 -0.038776
C17   C     C_R   0.089253 0.803656 0.003079 -0.132596
H13   H     H_    0.147358 0.830383 0.977460 0.096182
N13   N     N_R   0.052920 0.706170 0.997130 -0.039856
C18   C     C_R   0.704436 0.195927 0.794353 -0.118393
H14   H     H_    0.651844 0.168065 0.825327 0.086660
N14   N     N_R   0.791050 0.293830 0.847890 -0.036148
C19   C     C_R   0.777588 0.592711 0.024420 -0.128045
H15   H     H_    0.797830 0.678203 0.060362 0.108216
N15   N     N_R   0.846330 0.556820 0.053910 -0.040414
C20   C     C_R   0.953428 0.409797 0.686837 -0.136079
H16   H     H_    0.911825 0.325434 0.621996 0.096062
N16   N     N_R   0.997640 0.443180 0.791110 -0.040496
Ni1   Ni    Ni4+2 0.869690 0.369690 0.000000 0.219396
Ni2   Ni    Ni4+2 0.130310 0.630310 0.000000 0.216699
Ni3   Ni    Ni4+2 0.000970 0.369690 0.869780 0.216922
Ni4   Ni    Ni4+2 0.999030 0.630310 0.130220 0.222960
C21   C     C_R   0.676438 0.500726 0.947841 0.053068
C22   C     C_R   0.979546 0.505117 0.680743 0.058646
C23   C     C_R   0.701842 0.133947 0.700884 0.054235
C24   C     C_R   0.057504 0.867561 0.065086 0.056506
H17   H     H_    0.481758 0.138940 0.032854 0.127631
C25   C     C_R   0.583355 0.308298 0.160260 -0.245346
H18   H     H_    0.528354 0.333840 0.126329 0.146706
C26   C     C_R   0.679404 0.385869 0.257725 0.389457
C27   C     C_R   0.751262 0.350321 0.299684 -0.049418
C28   C     C_R   0.722179 0.238306 0.247929 -0.219121
H19   H     H_    0.776079 0.210352 0.280508 0.133346
C29   C     C_R   0.625422 0.162496 0.152005 -0.084361
H20   H     H_    0.604388 0.076661 0.111695 0.107186
C30   C     C_R   0.556565 0.197659 0.107587 -0.156236
C31   C     C_R   0.872107 0.430078 0.491354 -0.178679
H21   H     H_    0.807901 0.369252 0.491215 0.135604
C32   C     C_R   0.967710 0.511165 0.586710 0.057724
C33   C     C_R   0.050083 0.594794 0.589706 0.022746
C34   C     C_R   0.035317 0.591524 0.494934 -0.226732
H22   H     H_    0.100998 0.651838 0.496194 0.126842
C35   C     C_R   0.941578 0.508362 0.398817 0.100515
C36   C     C_R   0.857486 0.428835 0.396632 0.085623
C37   C     C_R   0.175279 0.795321 0.722350 -0.165562
H23   H     H_    0.117447 0.813344 0.678451 0.118985
C38   C     C_R   0.270842 0.881905 0.815462 -0.133176
H24   H     H_    0.287018 0.965825 0.842981 0.139825
C39   C     C_R   0.345544 0.860207 0.873810 -0.105896
H25   H     H_    0.419132 0.927237 0.946303 0.096122
C40   C     C_R   0.325413 0.751989 0.838654 -0.108135
H26   H     H_    0.383644 0.736537 0.884825 0.094755
C41   C     C_R   0.230373 0.664691 0.745035 -0.129796
H27   H     H_    0.215611 0.581047 0.718923 0.115854
C42   C     C_R   0.153525 0.685772 0.687241 0.104688
H28   H     H_    0.056504 0.990765 0.432900 0.102726
C43   C     C_R   0.186118 0.009401 0.394213 -0.101501
H29   H     H_    0.155959 0.031648 0.335387 0.114042
C44   C     C_R   0.280406 0.001753 0.413732 -0.058265
H30   H     H_    0.321447 0.017314 0.368996 0.112185
C45   C     C_R   0.319930 0.971345 0.488826 0.126946
C46   C     C_R   0.265968 0.951865 0.546436 -0.190994
H31   H     H_    0.295455 0.928006 0.604450 0.123465
C47   C     C_R   0.170476 0.957675 0.525066 -0.125835
H32   H     H_    0.126656 0.938244 0.566180 0.099800
C48   C     C_R   0.130587 0.986603 0.449196 -0.096602
C49   C     C_R   0.509441 0.033410 0.597485 -0.191204
H33   H     H_    0.507163 0.099770 0.655586 0.160653
C50   C     C_R   0.606899 0.034227 0.611609 0.042434
C51   C     C_R   0.609690 0.950348 0.533330 0.021805
C52   C     C_R   0.513420 0.869156 0.439510 -0.218893
H34   H     H_    0.512838 0.802904 0.378196 0.143340
C53   C     C_R   0.417613 0.872447 0.424156 0.056097
C54   C     C_R   0.415344 0.955447 0.503925 0.001356
C55   C     C_R   0.740983 0.928940 0.469903 -0.183319
H35   H     H_    0.703302 0.941896 0.405242 0.107602
C56   C     C_R   0.820076 0.897464 0.472271 -0.091605
H36   H     H_    0.844188 0.887705 0.410815 0.109198
C57   C     C_R   0.865027 0.874418 0.551555 -0.029685
H37   H     H_    0.923026 0.845768 0.550644 0.101817
C58   C     C_R   0.833706 0.886471 0.630780 -0.091745
H38   H     H_    0.866965 0.866430 0.690785 0.109669
C59   C     C_R   0.756082 0.919936 0.629961 -0.133033
H39   H     H_    0.729568 0.924841 0.689372 0.113863
C60   C     C_R   0.707496 0.939132 0.548105 0.118988
C61   C     C_3   0.472694 0.393761 0.829647 0.286185
H40   H     H_    0.468372 0.320738 0.836682 0.025369
C62   C     C_3   0.368123 0.395912 0.823573 -0.522900
H41   H     H_    0.321493 0.395263 0.749758 0.199015
H42   H     H_    0.315585 0.319890 0.817853 0.146455
H43   H     H_    0.565334 0.427616 0.036034 0.163718
H44   H     H_    0.413567 0.430795 0.032154 0.169981
C63   C     C_3   0.565157 0.500907 0.032639 -0.415971
C64   C     C_3   0.574018 0.604343 0.934232 -0.358186
C65   C     C_3   0.573753 0.499811 0.933327 0.167235
H45   H     H_    0.639802 0.677664 0.012534 0.153102
H46   H     H_    0.589622 0.614611 0.870716 0.205628
C66   C     C_3   0.396673 0.499545 0.924918 0.321746
C67   C     C_3   0.462500 0.502143 0.028377 -0.347893
C68   C     C_3   0.466838 0.601171 0.923059 -0.411779
H47   H     H_    0.422488 0.596095 0.845854 0.182320
H48   H     H_    0.486343 0.679441 0.990038 0.138096
H49   H     H_    0.636110 0.574871 0.108207 0.218865
H50   H     H_    0.484832 0.577875 0.100888 0.181597
H51   H     H_    0.270990 0.125275 0.755364 0.128669
C69   C     C_R   0.143236 0.054758 0.787190 -0.124298
H52   H     H_    0.084599 0.998029 0.703495 0.100748
C70   C     C_R   0.114789 0.054499 0.866215 -0.149144
H53   H     H_    0.034240 0.996388 0.843127 0.110778
C71   C     C_R   0.190309 0.129388 0.975391 0.103576
C72   C     C_R   0.295206 0.202297 0.004775 -0.161994
H54   H     H_    0.353732 0.259198 0.088901 0.132697
C73   C     C_R   0.324211 0.199902 0.925162 -0.162173
H55   H     H_    0.405545 0.253981 0.946885 0.109332
C74   C     C_R   0.248183 0.126729 0.816563 -0.133714
C75   C     C_R   0.165650 0.038257 0.075302 -0.211650
H56   H     H_    0.210725 0.002582 0.047169 0.125890
C76   C     C_R   0.092411 0.985038 0.102720 0.043513
C77   C     C_R   0.046174 0.042791 0.151809 -0.001141
C78   C     C_R   0.071129 0.146390 0.164120 -0.194451
H57   H     H_    0.038929 0.191578 0.205059 0.126148
C79   C     C_R   0.105279 0.172894 0.096499 0.060957
C80   C     C_R   0.160928 0.122087 0.057289 0.026256
C81   C     C_R   0.849171 0.920527 0.070306 -0.130536
H58   H     H_    0.842985 0.892245 0.991286 0.118321
C82   C     C_R   0.754810 0.890693 0.078799 -0.154540
H59   H     H_    0.676834 0.839537 0.006745 0.115474
C83   C     C_R   0.760858 0.928941 0.179923 -0.094939
H60   H     H_    0.687591 0.905072 0.186216 0.095516
C84   C     C_R   0.861373 0.000693 0.272764 -0.119253
H61   H     H_    0.865936 0.033229 0.350991 0.102892
C85   C     C_R   0.955741 0.034344 0.264449 -0.187878
H62   H     H_    0.032095 0.096162 0.336503 0.119338
C86   C     C_R   0.950670 0.992331 0.163210 0.107744
N17   N     N_R   0.700382 0.497909 0.313636 0.227708
O1    O     O_R   0.644804 0.533022 0.263914 -0.444837
O2    O     O_R   0.763434 0.560619 0.417220 -0.405803
N18   N     N_R   0.478356 0.378963 0.731068 0.243906
O3    O     O_R   0.486050 0.295082 0.675217 -0.417415
O4    O     O_R   0.468255 0.443927 0.694228 -0.406247

loop_
_geom_bond_atom_site_label_1
_geom_bond_atom_site_label_2
_geom_bond_distance
_ccdc_geom_bond_type
H17   C30   1.082064 S    
C6    C12   1.375132 A    
C28   C29   1.394482 A    
C41   H27   1.083216 S    
C44   H30   1.083306 S    
C75   C80   1.386032 A    
N17   O2    1.301845 A    
C17   H13   1.078333 S    
C45   C46   1.404571 A    
C14   C22   1.367647 A    
C64   C65   1.548913 S    
C38   H24   1.079189 S    
C81   C86   1.404748 A    
C3    H3    1.080096 S    
C19   N15   1.330225 A    
C35   C36   1.403328 A    
N18   O3    1.301157 A    
N8    Ni3   1.883239 S    
C52   C53   1.394330 A    
C49   H33   1.085150 S    
C33   C42   1.485539 S    
C21   C65   1.472752 S    
C79   C80   1.418205 A    
C15   N11   1.336789 A    
N2    Ni2   1.892832 S    
C83   H60   1.082518 S    
C55   C56   1.397750 A    
C24   C76   1.473908 S    
C16   H12   1.079021 S    
C43   C44   1.394530 A    
C18   C23   1.371937 A    
C58   H38   1.080964 S    
C3    C11   1.382049 A    
C26   C27   1.416982 A    
C25   C30   1.397045 A    
C15   C23   1.377926 A    
C1    H1    1.076178 S    
C32   C33   1.415866 A    
H28   C48   1.081611 S    
C26   N17   1.446237 S    
C7    C10   1.375706 A    
C25   C26   1.403073 A    
N6    Ni1   1.892965 S    
C38   C39   1.394097 A    
N12   N13   1.392229 A    
C77   C78   1.390102 A    
C73   H55   1.078193 S    
H44   C67   1.111531 S    
C61   C62   1.545532 S    
C29   H20   1.082336 S    
N12   Ni4   1.883241 S    
C8    C9    1.386765 A    
C46   C47   1.396899 A    
C19   H15   1.078976 S    
C20   N16   1.328312 A    
C53   C54   1.409358 A    
N3    Ni3   1.889701 S    
C43   C48   1.398699 A    
C78   C79   1.399498 A    
N16   Ni3   1.883932 S    
C51   C60   1.478267 S    
C49   C54   1.366000 A    
C28   H19   1.083727 S    
C67   H50   1.114352 S    
C49   C50   1.397124 A    
C5    H5    1.079509 S    
C9    C79   1.477601 S    
C81   C82   1.396839 A    
C11   C66   1.471381 S    
C17   N13   1.333071 A    
N1    N8    1.392230 A    
N9    N15   1.380705 A    
C62   C66   1.552812 S    
C51   C52   1.389342 A    
C72   C73   1.400243 A    
N18   O4    1.301321 A    
C72   H54   1.080715 S    
C83   C84   1.396769 A    
C40   C41   1.399529 A    
C33   C34   1.366396 A    
C61   C65   1.568236 S    
C20   C22   1.390101 A    
N5    Ni2   1.857419 S    
C85   C86   1.405888 A    
C69   H52   1.076513 S    
C2    N2    1.331992 A    
C4    H4    1.082501 S    
C43   H29   1.078098 S    
C31   C32   1.394190 A    
C6    H6    1.077844 S    
C68   H48   1.109893 S    
C18   N14   1.320463 A    
C58   C59   1.398374 A    
C40   H26   1.076216 S    
N2    N7    1.392230 A    
H51   C74   1.081930 S    
C1    N1    1.333153 A    
C15   H11   1.081050 S    
C14   N10   1.311105 A    
C34   H22   1.085415 S    
C63   C65   1.548739 S    
C13   H9    1.078007 S    
C64   C68   1.537744 S    
C19   C21   1.394368 A    
N13   Ni2   1.857081 S    
C39   H25   1.081656 S    
C5    N5    1.324368 A    
C46   H31   1.083373 S    
C25   H18   1.075196 S    
C20   H16   1.081288 S    
C56   C57   1.396074 A    
N17   O1    1.301536 A    
N9    Ni1   1.857420 S    
C12   C35   1.426440 S    
C34   C35   1.393343 A    
C78   H57   1.081187 S    
N4    Ni4   1.883930 S    
C4    N4    1.317756 A    
C16   C24   1.377206 A    
C66   C68   1.554441 S    
C39   C40   1.395105 A    
C13   C21   1.383113 A    
N10   Ni2   1.892968 S    
C47   C48   1.396866 A    
C41   C42   1.405594 A    
C77   C86   1.478707 S    
C85   H62   1.081841 S    
C75   C76   1.400223 A    
C27   C28   1.405547 A    
C62   H42   1.104481 S    
C64   H46   1.109872 S    
C70   C71   1.403079 A    
C61   H40   1.112342 S    
C55   C60   1.406861 A    
C37   C38   1.397299 A    
C57   H37   1.082199 S    
C4    C12   1.368167 A    
C3    N3    1.331469 A    
C84   H61   1.082240 S    
C27   C36   1.472295 S    
C56   H36   1.082296 S    
C73   C74   1.396000 A    
C75   H56   1.079980 S    
C6    N6    1.330346 A    
C61   N18   1.468382 S    
C18   H14   1.082411 S    
C63   C67   1.519332 S    
C17   C24   1.396840 A    
C69   C70   1.394585 A    
C2    H2    1.081025 S    
C64   H45   1.107142 S    
C10   C53   1.433106 S    
N7    Ni4   1.889998 S    
C2    C10   1.387769 A    
C1    C9    1.402503 A    
C68   H47   1.111338 S    
N15   Ni4   1.889699 S    
C52   H34   1.085235 S    
N10   N16   1.380706 A    
C71   C72   1.397743 A    
C23   C50   1.435939 S    
C14   H10   1.077103 S    
C7    H7    1.076874 S    
C59   C60   1.403444 A    
C62   H41   1.112588 S    
C31   H21   1.085432 S    
C13   N9    1.322479 A    
C55   H35   1.083386 S    
C82   H59   1.081692 S    
C16   N12   1.333060 A    
N1    Ni1   1.857083 S    
C8    H8    1.069110 S    
C81   H58   1.083373 S    
N14   Ni1   1.892835 S    
C84   C85   1.398183 A    
C66   C67   1.547883 S    
C8    N8    1.329731 A    
C71   C80   1.470028 S    
N3    N5    1.380704 A    
C37   C42   1.407498 A    
C45   C54   1.478167 S    
C37   H23   1.083468 S    
N11   Ni3   1.889997 S    
C76   C77   1.421619 A    
C44   C45   1.402356 A    
C47   H32   1.079599 S    
N4    N6    1.380704 A    
C50   C51   1.409123 A    
H43   C63   1.110395 S    
C29   C30   1.393875 A    
C70   H53   1.080829 S    
C5    C11   1.374205 A    
C63   H49   1.113929 S    
C57   C58   1.398030 A    
N11   N14   1.392230 A    
C59   H39   1.083243 S    
C69   C74   1.394204 A    
C31   C36   1.378052 A    
C22   C32   1.421952 S    
C82   C83   1.397076 A    
C7    N7    1.316930 A    
