data_str_m9_o18_o19_f0_sra.sym.38
_audit_creation_date              2012-12-11T15:27:37-0500
_audit_creation_method            fapswitch 2.2
_symmetry_space_group_name_H-M    P1
_symmetry_Int_Tables_number       1
_space_group_crystal_system       triclinic
_cell_length_a                    23.13942
_cell_length_b                    7.285673
_cell_length_c                    15.111747
_cell_angle_alpha                 90.00092
_cell_angle_beta                  107.984875
_cell_angle_gamma                 90.000794
_cell_volume                      2423.1504368

loop_
_atom_site_label
_atom_site_type_symbol
_atom_type_description
_atom_site_fract_x
_atom_site_fract_y
_atom_site_fract_z
_atom_type_partial_charge
O1    O     O_R   0.711000 0.648610 0.341170 -0.546646
O2    O     O_R   0.289000 0.351390 0.658830 -0.546546
O3    O     O_R   0.789000 0.148610 0.158830 -0.546454
O4    O     O_R   0.211000 0.851390 0.841170 -0.546563
O5    O     O_R   0.829650 0.322030 0.336650 -0.537425
O6    O     O_R   0.170350 0.677970 0.663350 -0.537460
O7    O     O_R   0.670350 0.822030 0.163350 -0.537486
O8    O     O_R   0.329650 0.177970 0.836650 -0.537448
C1    C     C_R   0.854296 0.485799 0.356806 0.738827
C2    C     C_R   0.145703 0.514203 0.643198 0.738726
C3    C     C_R   0.645702 0.985792 0.143202 0.738609
C4    C     C_R   0.354297 0.014206 0.856802 0.738721
O9    O     O_R   0.713950 0.319280 0.352070 -0.538061
O10   O     O_R   0.286050 0.680720 0.647930 -0.538178
O11   O     O_R   0.786050 0.819280 0.147930 -0.538283
O12   O     O_R   0.213950 0.180720 0.852070 -0.538157
O13   O     O_R   0.672470 0.142870 0.174360 -0.535140
O14   O     O_R   0.327530 0.857130 0.825640 -0.535145
O15   O     O_R   0.827530 0.642870 0.325640 -0.535149
O16   O     O_R   0.172470 0.357130 0.674360 -0.535141
C5    C     C_R   0.702553 0.488217 0.377176 0.746482
C6    C     C_R   0.297453 0.511787 0.622830 0.746576
C7    C     C_R   0.797456 0.988212 0.122833 0.746656
C8    C     C_R   0.202551 0.011784 0.877174 0.746557
O17   O     O_3   0.736530 0.478650 0.191680 -0.388863
O18   O     O_3   0.263470 0.521350 0.808320 -0.388889
O19   O     O_3   0.763470 0.978650 0.308320 -0.388918
O20   O     O_3   0.236530 0.021350 0.691680 -0.388894
V1    V     V_3+5 0.752500 0.206170 0.260820 1.402256
V2    V     V_3+5 0.247500 0.793830 0.739180 1.401965
V3    V     V_3+5 0.747500 0.706170 0.239180 1.401728
V4    V     V_3+5 0.252500 0.293830 0.760820 1.402037
C9    C     C_R   0.825750 0.002295 0.048686 -0.121201
C10   C     C_R   0.174245 0.997669 0.951304 -0.121170
C11   C     C_R   0.674246 0.502340 0.451305 -0.121170
C12   C     C_R   0.325748 0.497694 0.548683 -0.121197
C13   C     C_R   0.823519 0.105789 0.894994 -0.135280
C14   C     C_R   0.176446 0.894036 0.104960 -0.135119
C15   C     C_R   0.676436 0.606089 0.604941 -0.134972
C16   C     C_R   0.323526 0.394097 0.395010 -0.135133
C17   C     C_R   0.793293 0.072922 0.961269 0.366002
C18   C     C_R   0.206698 0.927102 0.038737 0.366007
C19   C     C_R   0.706698 0.572912 0.538742 0.365993
C20   C     C_R   0.293291 0.427075 0.461261 0.365991
C21   C     C_R   0.887464 0.964342 0.069969 -0.278863
C22   C     C_R   0.112515 0.035430 0.929967 -0.278776
C23   C     C_R   0.612513 0.464587 0.429964 -0.278708
C24   C     C_R   0.387465 0.535631 0.569972 -0.278793
C25   C     C_R   0.919841 0.003685 0.006750 0.089992
C26   C     C_R   0.080122 0.995984 0.993152 0.089978
C27   C     C_R   0.580119 0.504058 0.493144 0.089968
C28   C     C_R   0.419843 0.496270 0.506756 0.089981
C29   C     C_R   0.888110 0.090357 0.920749 -0.015011
C30   C     C_R   0.111849 0.909316 0.079157 -0.015018
C31   C     C_R   0.611839 0.590819 0.579126 -0.015013
C32   C     C_R   0.388118 0.409514 0.420775 -0.015009
C33   C     C_R   0.983515 0.966780 0.029238 0.069248
C34   C     C_R   0.016442 0.032814 0.970638 0.069267
C35   C     C_R   0.516443 0.467165 0.470643 0.069271
C36   C     C_R   0.483512 0.533240 0.529229 0.069253
C37   C     C_R   0.985206 0.139100 0.892593 -0.219861
C38   C     C_R   0.014745 0.860435 0.107263 -0.219800
C39   C     C_R   0.514730 0.639707 0.607215 -0.219713
C40   C     C_R   0.485218 0.360763 0.392635 -0.219773
C41   C     C_R   0.922582 0.165789 0.866613 -0.049756
C42   C     C_R   0.077370 0.833762 0.133251 -0.049727
C43   C     C_R   0.577352 0.666448 0.633191 -0.049710
C44   C     C_R   0.422597 0.334011 0.366667 -0.049737
H1    H     H_    0.090053 0.082220 0.860081 0.120208
H2    H     H_    0.909934 0.917506 0.139845 0.120238
H3    H     H_    0.409938 0.582485 0.639846 0.120260
H4    H     H_    0.590050 0.417769 0.360082 0.120230
H5    H     H_    0.009102 0.210339 0.851864 0.125823
H6    H     H_    0.990840 0.789141 0.147965 0.125828
H7    H     H_    0.490815 0.711042 0.647891 0.125845
H8    H     H_    0.509124 0.289486 0.351930 0.125837
C45   C     C_1   0.416786 0.007079 0.918693 -0.193479
C46   C     C_1   0.583211 0.992913 0.081315 -0.193566
C47   C     C_1   0.083213 0.507074 0.581311 -0.193480
C48   C     C_1   0.916784 0.492935 0.418698 -0.193397
C49   C     C_1   0.469157 0.002454 0.969954 0.010696
C50   C     C_1   0.530840 0.997535 0.030056 0.010789
C51   C     C_1   0.030840 0.502459 0.530054 0.010736
C52   C     C_1   0.969156 0.497552 0.469956 0.010645
C53   C     C_1   0.897445 0.292696 0.790742 0.292987
N1    N     N_1   0.877872 0.395455 0.730490 -0.320265
C54   C     C_1   0.102505 0.706770 0.209084 0.292928
N2    N     N_1   0.122077 0.603942 0.269305 -0.320170
C55   C     C_1   0.602475 0.793583 0.708964 0.292842
N3    N     N_1   0.622039 0.896526 0.769138 -0.320089
C56   C     C_1   0.397470 0.206973 0.290850 0.292908
N4    N     N_1   0.377904 0.104109 0.230641 -0.320180
O21   O     O_3   0.268913 0.900947 0.060928 -0.564134
C57   C     C_3   0.280772 0.711615 0.054937 0.075072
H9    H     H_    0.258690 0.659685 0.983231 0.144355
H10   H     H_    0.263863 0.629790 0.104044 0.135942
C58   C     C_3   0.349291 0.682144 0.079877 -0.279763
H11   H     H_    0.367935 0.771697 0.035790 0.203637
H12   H     H_    0.371250 0.720106 0.153931 0.220091
C59   C     C_3   0.364264 0.482618 0.065287 -0.792840
H13   H     H_    0.343912 0.389891 0.105795 0.259431
H14   H     H_    0.414298 0.463044 0.088839 0.227343
H15   H     H_    0.346336 0.445846 0.990447 0.244409
O22   O     O_3   0.731097 0.099414 0.939173 -0.564169
C60   C     C_3   0.719359 0.288849 0.945096 0.075485
H16   H     H_    0.736015 0.370227 0.895564 0.136188
H17   H     H_    0.741760 0.341128 0.016651 0.143907
C61   C     C_3   0.650886 0.318569 0.920851 -0.279998
H18   H     H_    0.628575 0.279774 0.846997 0.220126
H19   H     H_    0.632505 0.229779 0.965564 0.203377
C62   C     C_3   0.636079 0.518434 0.935047 -0.792231
H20   H     H_    0.654470 0.556211 0.009713 0.244667
H21   H     H_    0.586047 0.538041 0.912165 0.227240
H22   H     H_    0.656089 0.610390 0.893748 0.259289
O23   O     O_3   0.231081 0.400808 0.439105 -0.564149
C63   C     C_3   0.219259 0.211450 0.445093 0.075105
H23   H     H_    0.241372 0.159518 0.516788 0.144343
H24   H     H_    0.236161 0.129691 0.395958 0.135972
C64   C     C_3   0.150748 0.181862 0.420205 -0.279834
H25   H     H_    0.132111 0.271313 0.464341 0.203625
H26   H     H_    0.128758 0.219879 0.346169 0.220088
C65   C     C_3   0.135815 0.982282 0.434757 -0.792739
H27   H     H_    0.156156 0.889657 0.394193 0.259458
H28   H     H_    0.085784 0.962633 0.411250 0.227338
H29   H     H_    0.153778 0.945439 0.509582 0.244441
O24   O     O_3   0.768926 0.598863 0.560989 -0.564119
C66   C     C_3   0.780862 0.788123 0.554934 0.074728
H30   H     H_    0.763719 0.870312 0.603663 0.135728
H31   H     H_    0.759052 0.839716 0.483096 0.144756
C67   C     C_3   0.849416 0.817480 0.580484 -0.279524
H32   H     H_    0.871071 0.780270 0.654713 0.220012
H33   H     H_    0.868303 0.727289 0.536948 0.203850
C68   C     C_3   0.864503 0.016741 0.565548 -0.793197
H34   H     H_    0.846980 0.052615 0.490557 0.244172
H35   H     H_    0.914534 0.036369 0.589690 0.227420
H36   H     H_    0.843838 0.110109 0.605357 0.259562
C69   C     C_1   0.786380 0.142697 0.800248 0.393223
N5    N     N_1   0.756286 0.171538 0.724747 -0.349287
C70   C     C_1   0.213566 0.857069 0.199711 0.393180
N6    N     N_1   0.243647 0.828180 0.275214 -0.349563
C71   C     C_1   0.713548 0.643157 0.699686 0.393126
N7    N     N_1   0.743622 0.672125 0.775185 -0.349756
C72   C     C_1   0.286395 0.357093 0.300269 0.393184
N8    N     N_1   0.256306 0.328176 0.224773 -0.349473

loop_
_geom_bond_atom_site_label_1
_geom_bond_atom_site_label_2
_ccdc_geom_bond_type
O17   V3    S    
C54   N2    T    
O1    C5    A    
O21   C57   S    
O19   V1    S    
C18   O21   S    
C9    C21   A    
O3    C7    A    
C62   H20   S    
C10   C18   A    
C43   C55   S    
C48   C52   T    
O15   V3    S    
C58   H11   S    
C25   C33   A    
C33   C38   A    
C53   N1    T    
C61   H18   S    
C2    C47   S    
O7    C3    A    
C60   H17   S    
C35   C40   A    
O24   C66   S    
C36   C39   A    
C40   C44   A    
O9    V1    S    
C14   C18   A    
O4    C8    A    
C72   N8    T    
O1    V3    S    
C44   C56   S    
O13   V1    S    
C63   H23   S    
O2    V4    S    
O3    V1    S    
C22   H1    S    
C28   C36   A    
C1    O15   A    
C15   C31   A    
C15   C71   S    
C20   O23   S    
C2    O16   A    
C7    C9    S    
O2    C6    A    
C68   H36   S    
C61   C62   S    
C14   C70   S    
C10   C22   A    
C45   C49   T    
C11   C19   A    
C16   C20   A    
C13   C29   A    
C34   C37   A    
O11   C7    A    
C69   N5    T    
C11   C23   A    
C35   C36   A    
O12   C8    A    
C13   C69   S    
O10   V2    S    
C19   O24   S    
O22   C60   S    
C58   H12   S    
C49   C50   S    
O5    V1    S    
C64   H26   S    
C15   C19   A    
C60   C61   S    
C39   C43   A    
O7    V3    S    
C38   C42   A    
C28   C32   A    
O8    V4    S    
C42   C54   S    
O18   V4    S    
C23   C27   A    
C57   C58   S    
C37   H5    S    
C32   C44   A    
O11   V3    S    
C59   H15   S    
C8    C10   S    
C1    C48   S    
C26   C34   A    
C67   H33   S    
C66   H31   S    
O5    C1    A    
C3    C46   S    
C46   C50   T    
C51   C52   S    
C14   C30   A    
C21   C25   A    
O8    C4    A    
C4    C45   S    
C59   H14   S    
C40   H8    S    
O9    C5    A    
C62   H21   S    
C16   C32   A    
C26   C30   A    
C64   H25   S    
C57   H10   S    
C5    C11   S    
O6    V2    S    
C68   H34   S    
C12   C20   A    
C67   C68   S    
C27   C35   A    
C24   H3    S    
C65   H28   S    
C66   H30   S    
C56   N4    T    
C58   C59   S    
C29   C41   A    
O16   V4    S    
C64   C65   S    
C3    O13   A    
C21   H2    S    
O6    C2    A    
C31   C43   A    
C70   N6    T    
C63   C64   S    
C41   C53   S    
C30   C42   A    
O12   V4    S    
C6    C12   S    
C60   H16   S    
C22   C26   A    
C17   O22   S    
C9    C17   A    
O10   C6    A    
C65   H29   S    
O20   V2    S    
C67   H32   S    
C65   H27   S    
C66   C67   S    
C71   N7    T    
C47   C51   T    
C33   C34   A    
C61   H19   S    
C39   H7    S    
C25   C29   A    
C59   H13   S    
C63   H24   S    
C12   C24   A    
C62   H22   S    
C27   C31   A    
C13   C17   A    
C57   H9    S    
C23   H4    S    
O14   V2    S    
C37   C41   A    
C24   C28   A    
C16   C72   S    
C4    O14   A    
C68   H35   S    
C38   H6    S    
C55   N3    T    
O4    V2    S    
O23   C63   S    
