data_str_m9_o18_o24_f0_sra.sym.79
_audit_creation_date              2012-12-11T15:31:42-0500
_audit_creation_method            fapswitch 2.2
_symmetry_space_group_name_H-M    P1
_symmetry_Int_Tables_number       1
_space_group_crystal_system       triclinic
_cell_length_a                    6.97096
_cell_length_b                    14.929276
_cell_length_c                    21.433511
_cell_angle_alpha                 74.283151
_cell_angle_beta                  89.631513
_cell_angle_gamma                 90.232426
_cell_volume                      2147.13387397

loop_
_atom_site_label
_atom_site_type_symbol
_atom_type_description
_atom_site_fract_x
_atom_site_fract_y
_atom_site_fract_z
_atom_type_partial_charge
O1    O     O_R   0.648150 0.130050 0.214300 -0.538790
O2    O     O_R   0.351850 0.869950 0.785700 -0.553313
O3    O     O_R   0.320490 0.006660 0.340150 -0.550180
O4    O     O_R   0.679510 0.993340 0.659850 -0.524430
O5    O     O_R   0.146100 0.869940 0.285700 -0.532029
O6    O     O_R   0.853900 0.130060 0.714300 -0.535041
C1    C     C_R   0.488624 0.002475 0.366901 0.677851
C2    C     C_R   0.511427 0.997297 0.633092 0.674963
O7    O     O_R   0.318690 0.137980 0.218120 -0.547392
O8    O     O_R   0.681310 0.862020 0.781880 -0.535117
O9    O     O_R   0.144280 0.002190 0.162800 -0.518659
O10   O     O_R   0.855720 0.997810 0.837200 -0.503118
C3    C     C_R   0.487963 0.175512 0.207425 0.683134
C4    C     C_R   0.511617 0.824240 0.790929 0.745938
O11   O     O_R   0.649960 0.997790 0.337200 -0.558984
O12   O     O_R   0.350040 0.002210 0.662800 -0.522237
O13   O     O_3   0.479300 0.955290 0.231990 -0.338027
O14   O     O_3   0.520700 0.044710 0.768010 -0.349508
V1    V     V_3+5 0.206040 0.008290 0.253340 1.515926
V2    V     V_3+5 0.793960 0.991710 0.746660 1.639815
O15   O     O_R   0.814320 0.993320 0.159850 -0.518995
O16   O     O_R   0.185680 0.006680 0.840150 -0.529706
C5    C     C_R   0.983710 0.001164 0.132690 0.778328
C6    C     C_R   0.016318 0.000685 0.867149 0.752800
O17   O     O_R   0.816120 0.862000 0.281880 -0.544615
O18   O     O_R   0.183880 0.138000 0.718120 -0.543723
C7    C     C_R   0.984359 0.824945 0.293860 0.725285
C8    C     C_R   0.015443 0.175049 0.706157 0.814080
V3    V     V_3+5 0.705540 0.991700 0.246660 1.537234
V4    V     V_3+5 0.294460 0.008300 0.753340 1.610746
O19   O     O_3   0.982150 0.044700 0.268010 -0.392963
O20   O     O_3   0.017850 0.955300 0.731990 -0.372086
C9    C     C_R   0.990740 0.724557 0.323593 -0.109938
C10   C     C_R   0.008037 0.275161 0.675725 -0.075074
C11   C     C_R   0.011344 0.569506 0.308532 -0.001001
C12   C     C_R   0.981594 0.430352 0.690260 0.017525
C13   C     C_R   0.984448 0.665093 0.283492 -0.172587
C14   C     C_R   0.011559 0.335032 0.715573 -0.216902
C15   C     C_R   0.008684 0.688597 0.391156 -0.072389
C16   C     C_R   0.988733 0.310657 0.608001 -0.096969
C17   C     C_R   0.001840 0.590310 0.418637 0.054009
C18   C     C_R   0.991717 0.408822 0.580334 -0.014990
C19   C     C_R   0.030639 0.532254 0.376538 0.079996
C20   C     C_R   0.961195 0.467053 0.622228 0.108911
C21   C     C_R   0.973750 0.547238 0.486364 0.106177
C22   C     C_R   0.017469 0.451563 0.512398 0.035835
C23   C     C_R   0.096571 0.403408 0.470291 -0.210582
C24   C     C_R   0.893047 0.595287 0.528196 -0.127503
C25   C     C_R   0.091414 0.440636 0.403597 -0.114299
C26   C     C_R   0.897883 0.558245 0.594937 -0.128086
C27   C     C_3   0.873879 0.938407 0.990399 -0.209178
C28   C     C_3   0.127879 0.066025 0.009583 -0.215347
C29   C     C_3   0.045801 0.918472 0.037197 -0.059516
C30   C     C_3   0.956050 0.085970 0.962401 -0.039510
C31   C     C_3   0.995609 0.002981 0.062249 -0.052891
C32   C     C_3   0.005526 0.001047 0.937469 -0.051929
C33   C     C_3   0.825871 0.024104 0.015278 0.019799
C34   C     C_3   0.175531 0.980408 0.984432 -0.033767
C35   C     C_3   0.667017 0.031248 0.472394 0.059873
C36   C     C_3   0.333518 0.968363 0.527374 0.070538
C37   C     C_3   0.532150 0.086062 0.505943 -0.087757
C38   C     C_3   0.468447 0.913675 0.493897 -0.273433
C39   C     C_3   0.504377 0.997254 0.562616 -0.026341
C40   C     C_3   0.496107 0.002292 0.437320 -0.112907
C41   C     C_3   0.641650 0.942831 0.529395 -0.182823
C42   C     C_3   0.358974 0.056766 0.470405 -0.150289
C43   C     C_R   0.497280 0.276409 0.177576 -0.107850
C44   C     C_R   0.501881 0.723176 0.821110 -0.068449
C45   C     C_R   0.545775 0.430584 0.190143 -0.093791
C46   C     C_R   0.443140 0.569375 0.809417 -0.080825
C47   C     C_R   0.510911 0.336177 0.217194 -0.145631
C48   C     C_R   0.475716 0.663753 0.781872 -0.200110
C49   C     C_R   0.506908 0.312381 0.109737 -0.045996
C50   C     C_R   0.504801 0.686917 0.889149 -0.013476
C51   C     C_R   0.508234 0.410551 0.081321 0.059754
C52   C     C_R   0.498750 0.588659 0.917839 -0.012354
C53   C     C_R   0.550051 0.468982 0.122234 0.066342
C54   C     C_R   0.449946 0.530484 0.877230 0.073211
C55   C     C_R   0.477490 0.452413 0.013565 0.093540
C56   C     C_R   0.531463 0.546361 0.985614 0.042597
C57   C     C_R   0.621939 0.593877 0.026065 -0.277914
C58   C     C_R   0.389352 0.403746 0.973518 -0.183703
C59   C     C_R   0.610584 0.561703 0.093537 -0.018865
C60   C     C_R   0.394860 0.436925 0.906082 -0.018096
H1    H     H_    0.145562 0.398259 0.373815 0.179137
H2    H     H_    0.842746 0.600614 0.624564 0.165472
C61   C     C_2   0.852365 0.068384 0.440231 0.434894
H3    H     H_    0.947256 0.023096 0.422592 0.016537
O21   O     O_2   0.896010 0.149815 0.432980 -0.532949
C62   C     C_2   0.147238 0.929994 0.557931 0.334274
H4    H     H_    0.102059 0.860536 0.557587 0.053103
O22   O     O_2   0.046113 0.976367 0.583622 -0.489659
H5    H     H_    0.752836 0.893012 0.553673 0.142229
H6    H     H_    0.247106 0.105517 0.445557 0.171094
C63   C     C_2   0.673171 0.627323 0.130664 0.349155
H7    H     H_    0.790049 0.675634 0.112125 0.049047
O23   O     O_2   0.587447 0.633189 0.179206 -0.526935
C64   C     C_2   0.335159 0.370710 0.869039 0.373803
H8    H     H_    0.222301 0.320362 0.888184 0.030686
O24   O     O_2   0.419698 0.366678 0.819842 -0.525488
C65   C     C_2   0.484921 0.753286 0.928654 0.261384
H9    H     H_    0.386968 0.738807 0.969791 0.043694
O25   O     O_2   0.584662 0.823006 0.916673 -0.543792
C66   C     C_2   0.550709 0.246209 0.071483 0.296893
H10   H     H_    0.476849 0.179854 0.082655 0.049319
O26   O     O_2   0.674107 0.264352 0.029204 -0.553835
H11   H     H_    0.469026 0.691448 0.729677 0.124998
H12   H     H_    0.508013 0.308655 0.269469 0.132660
H13   H     H_    0.573470 0.471598 0.223498 0.189544
H14   H     H_    0.407249 0.528685 0.776527 0.188017
H15   H     H_    0.699378 0.658036 0.005936 0.136306
H16   H     H_    0.320478 0.337238 0.994196 0.104557
C67   C     C_2   0.932502 0.246842 0.568331 0.342558
H17   H     H_    0.833333 0.270686 0.528508 0.084104
O27   O     O_2   0.999906 0.169002 0.578130 -0.494325
C68   C     C_2   0.064148 0.754056 0.429611 0.324940
H18   H     H_    0.008719 0.824472 0.417401 0.014872
O28   O     O_2   0.179221 0.730855 0.473673 -0.542749
H19   H     H_    0.030027 0.306427 0.767333 0.155097
H20   H     H_    0.965477 0.694044 0.231843 0.166661
C69   C     C_2   0.011145 0.512421 0.261462 0.366118
H21   H     H_    0.048637 0.544601 0.211082 0.066897
O29   O     O_2   0.959621 0.431100 0.277043 -0.533870
C70   C     C_2   0.979682 0.487763 0.737129 0.356237
H22   H     H_    0.943685 0.455486 0.787626 0.074704
O30   O     O_2   0.027960 0.569540 0.721259 -0.543019
H23   H     H_    0.163249 0.336245 0.488066 0.154568
H24   H     H_    0.827761 0.662773 0.509993 0.122570
C71   C     C_2   0.100166 0.823021 0.076588 0.344600
H25   H     H_    0.113465 0.767207 0.053338 0.020826
O31   O     O_2   0.132168 0.807856 0.134349 -0.525168
C72   C     C_2   0.904392 0.180979 0.921594 0.344553
H26   H     H_    0.917934 0.240355 0.941228 0.093866
O32   O     O_2   0.844645 0.191896 0.866697 -0.526376
H27   H     H_    0.773635 0.882921 0.986994 0.182548
H28   H     H_    0.228690 0.119867 0.016814 0.118077
C73   C     C_2   0.631003 0.052885 0.030706 0.371298
H29   H     H_    0.566378 0.113621 0.998385 0.089723
O33   O     O_2   0.539074 0.005634 0.076615 -0.528892
C74   C     C_2   0.369397 0.951569 0.968576 0.435019
H30   H     H_    0.432359 0.889642 0.000044 0.068246
O34   O     O_2   0.461674 0.999845 0.923150 -0.497526
H31   H     H_    0.558875 0.157095 0.511022 0.126727
H32   H     H_    0.444333 0.842532 0.488969 0.180744

loop_
_geom_bond_atom_site_label_1
_geom_bond_atom_site_label_2
_ccdc_geom_bond_type
C61   H3    S    
C39   C41   S    
C65   H9    S    
C46   C54   A    
C49   C51   A    
C45   C53   A    
C63   H7    S    
C6    C32   S    
O4    C2    A    
V1    O19   S    
C66   O26   D    
C23   C25   A    
C21   C22   A    
C7    C9    S    
C34   C74   S    
C73   O33   D    
O9    V1    S    
C35   C40   S    
C9    C15   A    
C51   C55   A    
C50   C52   A    
C36   C39   S    
C10   C16   A    
C52   C54   A    
C12   C70   S    
C74   O34   D    
C71   H25   S    
O3    C1    A    
V2    O20   S    
C53   C59   A    
C44   C50   A    
C64   H8    S    
O13   V3    S    
C68   H18   S    
C36   C38   S    
C27   C32   S    
C18   C22   A    
C45   C47   A    
O7    C3    A    
C38   C40   S    
C46   H14   S    
O5    C7    A    
C45   H13   S    
C37   C42   S    
C37   H31   S    
C49   C66   S    
O6    C8    A    
C57   H15   S    
O7    V1    S    
O8    V2    S    
C72   H26   S    
O3    V1    S    
C27   C33   S    
C16   C18   A    
C11   C19   A    
C43   C47   A    
C28   C31   S    
C42   H6    S    
C24   C26   A    
C36   C42   S    
C2    O12   A    
C47   H12   S    
C17   C19   A    
C18   C20   A    
C66   H10   S    
C57   C59   A    
C28   C30   S    
O11   V3    S    
C29   C31   S    
O17   V3    S    
C30   C32   S    
C35   C37   S    
C25   H1    S    
C11   C69   S    
C74   H30   S    
C15   C17   A    
O8    C4    A    
C19   C25   A    
C1    O11   A    
O15   V3    S    
C9    C13   A    
C27   C29   S    
C58   H16   S    
C24   H24   S    
C62   O22   D    
C16   C67   S    
C48   H11   S    
C44   C48   A    
C59   C63   S    
O10   V2    S    
O1    V3    S    
C33   C73   S    
C23   H23   S    
C51   C53   A    
C69   H21   S    
C28   C34   S    
C68   O28   D    
C50   C65   S    
C43   C49   A    
C14   H19   S    
C72   O32   D    
O18   V4    S    
C58   C60   A    
C31   C33   S    
O14   V4    S    
C28   H28   S    
O16   C6    A    
C12   C20   A    
C29   C71   S    
C12   C14   A    
O6    V2    S    
C70   O30   D    
C67   H17   S    
C3    C43   S    
C21   C24   A    
C20   C26   A    
C22   C23   A    
C4    C44   S    
O16   V4    S    
C38   C41   S    
C11   C13   A    
C10   C14   A    
C37   C39   S    
C52   C56   A    
C38   H32   S    
C56   C57   A    
C55   C58   A    
C29   C34   S    
C63   O23   D    
C5    C31   S    
O5    V1    S    
C36   C62   S    
O17   C7    A    
C30   C72   S    
C73   H29   S    
O10   C6    A    
O18   C8    A    
O2    V4    S    
C60   C64   S    
O15   C5    A    
V3    O19   S    
C35   C41   S    
V4    O20   S    
C62   H4    S    
C13   H20   S    
C27   H27   S    
O9    C5    A    
C41   H5    S    
O13   V1    S    
C32   C34   S    
O14   V2    S    
O2    C4    A    
C64   O24   D    
C35   C61   S    
C1    C40   S    
C69   O29   D    
C26   H2    S    
C2    C39   S    
C8    C10   S    
C55   C56   A    
O4    V2    S    
C54   C60   A    
O1    C3    A    
C65   O25   D    
C15   C68   S    
C61   O21   D    
C17   C21   A    
C46   C48   A    
C71   O31   D    
O12   V4    S    
C40   C42   S    
C70   H22   S    
C67   O27   D    
C30   C33   S    
