data_str_m12_o9_o11_f0_bcu.sym.45
_audit_creation_date              2012-12-11T17:39:35-0500
_audit_creation_method            fapswitch 2.2
_symmetry_space_group_name_H-M    P1
_symmetry_Int_Tables_number       1
_space_group_crystal_system       triclinic
_cell_length_a                    15.073332
_cell_length_b                    15.102988
_cell_length_c                    14.948847
_cell_angle_alpha                 108.679267
_cell_angle_beta                  109.611782
_cell_angle_gamma                 110.467518
_cell_volume                      2608.05188447

loop_
_atom_site_label
_atom_site_type_symbol
_atom_type_description
_atom_site_fract_x
_atom_site_fract_y
_atom_site_fract_z
_atom_type_partial_charge
C1    C     C_R   0.909073 0.913780 0.714209 -0.148695
C2    C     C_R   0.907905 0.685275 0.443741 -0.140034
C3    C     C_R   0.697427 0.793611 0.202170 -0.106961
C4    C     C_R   0.092724 0.299745 0.498466 -0.154471
C5    C     C_R   0.302325 0.005944 0.597942 -0.156365
C6    C     C_R   0.633220 0.701763 0.201339 0.134537
C7    C     C_R   0.364933 0.064207 0.566513 0.059667
C8    C     C_R   0.001051 0.677637 0.464271 0.043026
C9    C     C_R   0.002833 0.946867 0.179145 0.050402
C10   C     C_R   0.494856 0.682800 0.399942 -0.113620
C11   C     C_R   0.509751 0.786556 0.427084 -0.120035
C12   C     C_R   0.002586 0.303171 0.441487 0.070417
C13   C     C_R   0.538019 0.857409 0.532989 0.111421
C14   C     C_R   0.548149 0.821858 0.610119 -0.186196
C15   C     C_R   0.533421 0.718173 0.582631 -0.127115
C16   C     C_R   0.259350 0.221022 0.813946 -0.150786
C17   C     C_R   0.507093 0.648794 0.477711 -0.096985
C18   C     C_R   0.475322 0.983460 0.578609 -0.234316
C19   C     C_R   0.469090 0.075139 0.584980 0.061715
C20   C     C_R   0.551642 0.161441 0.590000 0.026424
C21   C     C_R   0.635755 0.148543 0.580551 -0.244792
C22   C     C_R   0.634873 0.051452 0.563461 0.070382
C23   C     C_R   0.290972 0.323556 0.825357 0.136699
C24   C     C_R   0.553787 0.967780 0.562824 0.015275
C25   C     C_R   0.568588 0.302370 0.531640 -0.167061
C26   C     C_R   0.557427 0.391207 0.534578 -0.111415
C27   C     C_R   0.525220 0.439172 0.604344 -0.089011
C28   C     C_R   0.742486 0.056231 0.466361 -0.141031
C29   C     C_R   0.506160 0.399705 0.672673 -0.094310
C30   C     C_R   0.521339 0.313785 0.673236 -0.145759
C31   C     C_R   0.549313 0.261797 0.600093 0.116299
C32   C     C_R   0.809976 0.122701 0.090305 -0.098327
C33   C     C_R   0.885816 0.222285 0.186875 -0.204116
C34   C     C_R   0.714361 0.035322 0.539802 0.046589
C35   C     C_R   0.850424 0.286529 0.238485 -0.066783
C36   C     C_R   0.736870 0.248946 0.191556 0.645322
C37   C     C_R   0.661780 0.149828 0.093325 -0.269704
C38   C     C_R   0.698182 0.086667 0.043462 -0.180042
C39   C     C_R   0.933159 0.485834 0.353706 -0.166788
C40   C     C_R   0.257926 0.313563 0.722424 -0.132545
C41   C     C_R   0.006855 0.582762 0.453451 0.035070
C42   C     C_R   0.084059 0.587751 0.543607 0.021244
C43   C     C_R   0.086025 0.495022 0.530975 -0.246047
C44   C     C_R   0.008651 0.396784 0.434191 0.043900
C45   C     C_R   0.696596 0.701752 0.292466 -0.155846
C46   C     C_R   0.932084 0.390563 0.343052 0.061387
C47   C     C_R   0.272086 0.734326 0.700862 -0.197230
C48   C     C_R   0.341940 0.825099 0.805808 -0.115745
C49   C     C_R   0.298321 0.865531 0.866406 -0.096295
C50   C     C_R   0.184726 0.815055 0.822285 -0.123331
C51   C     C_R   0.114417 0.724668 0.716994 -0.116786
C52   C     C_R   0.752650 0.971537 0.565291 -0.109053
C53   C     C_R   0.157737 0.684242 0.655195 0.121519
C54   C     C_2   0.367914 0.518308 0.938261 -0.128318
C55   C     C_2   0.357574 0.423441 0.929120 -0.214373
C56   C     C_R   0.303720 0.093403 0.503376 -0.141629
C57   C     C_2   0.461251 0.621642 0.034480 -0.113060
C58   C     C_2   0.515991 0.626122 0.128801 -0.213293
C59   C     C_R   0.395894 0.215680 0.114719 -0.114239
C60   C     C_R   0.305223 0.115443 0.075628 -0.208689
C61   C     C_R   0.200081 0.102031 0.038323 0.122082
C62   C     C_R   0.187369 0.190907 0.042607 -0.121819
C63   C     C_R   0.278659 0.291539 0.083271 -0.137526
C64   C     C_R   0.909908 0.210909 0.409854 -0.125653
C65   C     C_R   0.382884 0.303934 0.119526 -0.110380
C66   C     C_R   0.107502 0.976214 0.087747 -0.226331
C67   C     C_R   0.091917 0.780270 0.527822 -0.105291
C68   C     C_R   0.009504 0.910449 0.079264 0.053191
C69   C     C_R   0.915336 0.835791 0.975065 0.024918
C70   C     C_R   0.916066 0.846857 0.885914 -0.242765
C71   C     C_R   0.007748 0.932870 0.901785 0.053865
C72   C     C_R   0.105209 0.998263 0.004926 0.004353
C73   C     C_R   0.829820 0.685203 0.009693 -0.137598
C74   C     C_R   0.738792 0.606360 0.000688 -0.091315
C75   C     C_R   0.634827 0.589256 0.941446 -0.084900
C76   C     C_R   0.091168 0.002568 0.801466 -0.127660
C77   C     C_R   0.621400 0.650552 0.890565 -0.137514
C78   C     C_R   0.910392 0.935273 0.187892 -0.127145
C79   C     C_R   0.712033 0.728669 0.898191 -0.175489
C80   C     C_R   0.817343 0.747460 0.958955 0.121310
C81   C     C_R   0.002066 0.952804 0.811380 0.052303
C82   C     C_3   0.680987 0.284014 0.315378 -0.360053
C83   C     C_R   0.093251 0.023037 0.282262 -0.121631
H1    H     H_    0.825466 0.856569 0.686833 0.099105
H2    H     H_    0.473641 0.628621 0.318593 0.103157
H3    H     H_    0.500134 0.812056 0.366180 0.115306
H4    H     H_    0.177118 0.353825 0.524838 0.096001
H5    H     H_    0.568688 0.874970 0.691730 0.111685
H6    H     H_    0.542425 0.691736 0.642740 0.099887
H7    H     H_    0.410575 0.915956 0.572060 0.131852
H8    H     H_    0.700389 0.212608 0.583269 0.129808
H9    H     H_    0.589171 0.263457 0.473773 0.101017
H10   H     H_    0.571485 0.421370 0.481070 0.102974
H11   H     H_    0.514055 0.506227 0.604826 0.092629
H12   H     H_    0.331444 0.147562 0.473388 0.112386
H13   H     H_    0.477781 0.434424 0.723989 0.106405
H14   H     H_    0.506760 0.284942 0.727431 0.116315
H15   H     H_    0.639700 0.009803 0.968280 0.123277
H16   H     H_    0.275196 0.200457 0.878178 0.126941
H17   H     H_    0.837983 0.073536 0.051586 0.122438
H18   H     H_    0.972298 0.249250 0.221737 0.140886
H19   H     H_    0.574936 0.121445 0.056189 0.131700
H20   H     H_    0.875874 0.484568 0.285226 0.148535
H21   H     H_    0.142268 0.498070 0.601760 0.133158
H22   H     H_    0.306857 0.703794 0.654596 0.119416
H23   H     H_    0.176855 0.802991 0.558764 0.109768
H24   H     H_    0.429887 0.863982 0.840198 0.100370
H25   H     H_    0.352687 0.935638 0.947708 0.095011
H26   H     H_    0.151194 0.845831 0.869767 0.120053
H27   H     H_    0.722457 0.101370 0.427743 0.094001
H28   H     H_    0.026545 0.686341 0.683539 0.114492
H29   H     H_    0.319792 0.521270 0.867757 0.125978
H30   H     H_    0.407376 0.418495 0.996749 0.136667
H31   H     H_    0.495811 0.687910 0.019707 0.121344
H32   H     H_    0.478466 0.563186 0.146379 0.122388
H33   H     H_    0.453616 0.381874 0.151440 0.102498
H34   H     H_    0.825636 0.886093 0.123776 0.117768
H35   H     H_    0.476321 0.225108 0.142090 0.158294
H36   H     H_    0.316744 0.048433 0.074901 0.110886
H37   H     H_    0.107210 0.182574 0.016167 0.113001
H38   H     H_    0.268710 0.359986 0.086969 0.120261
H39   H     H_    0.272867 0.377842 0.702152 0.086472
H40   H     H_    0.183497 0.027562 0.164851 0.126651
H41   H     H_    0.843970 0.790709 0.805478 0.126460
H42   H     H_    0.910202 0.698400 0.056950 0.112446
H43   H     H_    0.748917 0.558891 0.040116 0.111908
H44   H     H_    0.564600 0.527789 0.934331 0.121645
H45   H     H_    0.178190 0.051974 0.307640 0.095797
H46   H     H_    0.540626 0.637268 0.844948 0.099645
H47   H     H_    0.700534 0.776568 0.859648 0.103762
H48   H     H_    0.746158 0.942411 0.621059 0.113475
H49   H     H_    0.825549 0.183474 0.356229 0.089578
H50   H     H_    0.173853 0.021863 0.849229 0.110386
H51   H     H_    0.666926 0.650192 0.324354 0.095804
H52   H     H_    0.759679 0.311786 0.386647 0.160100
H53   H     H_    0.623881 0.195228 0.277983 0.136194
H54   H     H_    0.642622 0.327350 0.346558 0.182677
H55   H     H_    0.823522 0.619826 0.399482 0.119037
H56   H     H_    0.669252 0.827005 0.152304 0.087349
H57   H     H_    0.329281 0.982633 0.658740 0.103111
H58   H     H_    0.495703 0.568518 0.456463 0.098147
N1    N     N_R   0.941940 0.944580 0.650780 -0.039191
N2    N     N_R   0.204460 0.150250 0.707090 -0.042819
N3    N     N_R   0.794270 0.003240 0.446420 -0.041394
N4    N     N_R   0.204920 0.207570 0.650770 -0.041565
N5    N     N_R   0.793810 0.945920 0.502740 -0.042114
N6    N     N_R   0.943620 0.152590 0.446420 -0.038744
N7    N     N_R   0.055110 0.000900 0.707100 -0.039632
N8    N     N_R   0.795080 0.792430 0.349230 -0.040421
N9    N     N_R   0.206190 0.054080 0.497260 -0.040462
N10   N     N_R   0.056380 0.847410 0.553580 -0.042496
N11   N     N_R   0.944890 0.999100 0.292900 -0.042348
N12   N     N_R   0.058060 0.055420 0.349220 -0.041992
N13   N     N_R   0.943200 0.791100 0.497260 -0.042200
N14   N     N_R   0.795540 0.849750 0.292910 -0.046494
N15   N     N_R   0.205730 0.996760 0.553580 -0.038061
N16   N     N_R   0.056800 0.208900 0.502740 -0.037303
Ni1   Ni    Ni4+2 0.869690 0.869690 0.500000 0.214784
Ni2   Ni    Ni4+2 0.130310 0.130310 0.500000 0.212700
Ni3   Ni    Ni4+2 0.129250 0.998840 0.629170 0.216532
Ni4   Ni    Ni4+2 0.870750 0.001160 0.370830 0.212594
O1    O     O_3   0.698750 0.310531 0.238282 -0.636726

loop_
_geom_bond_atom_site_label_1
_geom_bond_atom_site_label_2
_ccdc_geom_bond_type
C25   C31   A    
C56   H12   S    
C66   C68   A    
C63   C65   A    
C10   H2    S    
C6    C45   A    
N3    Ni4   S    
C27   C29   A    
C41   C42   A    
C6    C58   S    
C35   C36   A    
C83   H45   S    
C38   H15   S    
C3    C6    A    
C54   C57   S    
C78   N11   A    
N2    Ni3   S    
C39   C41   A    
C4    H4    S    
N14   Ni4   S    
C1    H1    S    
C30   H14   S    
C45   H51   S    
C37   C38   A    
C40   N4    A    
C33   H18   S    
C22   C24   A    
C21   C22   A    
C36   C37   A    
N13   Ni1   S    
C82   H54   S    
C42   C53   S    
C30   C31   A    
N4    Ni2   S    
C73   H42   S    
C48   H24   S    
C11   H3    S    
C1    C81   A    
C23   C40   A    
C60   H36   S    
C17   H58   S    
C18   C19   A    
N7    Ni3   S    
N10   N13   A    
C82   H52   S    
C43   H21   S    
C1    N1    A    
C66   C72   A    
C64   H49   S    
C68   C69   A    
C47   H22   S    
C51   H28   S    
C70   C71   A    
C28   N3    A    
C32   C38   A    
C4    C12   A    
C29   C30   A    
N8    Ni1   S    
C62   H37   S    
N11   Ni4   S    
C47   C53   A    
C26   H10   S    
C28   C34   A    
C59   C60   A    
N16   Ni2   S    
N9    N15   A    
C13   C14   A    
C36   O1    S    
C61   C62   A    
C7    C56   A    
N1    Ni1   S    
C63   H38   S    
C44   C46   A    
C49   H25   S    
C77   C79   A    
C73   C74   A    
C22   C34   S    
C74   C75   A    
C67   N10   A    
C2    H55   S    
N1    N7    A    
N15   Ni3   S    
C16   N2    A    
C8    C41   S    
N3    N5    A    
N9    Ni2   S    
C5    C7    A    
C82   O1    S    
C28   H27   S    
C25   C26   A    
C79   H47   S    
C50   H26   S    
C37   H19   S    
C32   H17   S    
C13   C24   S    
C60   C61   A    
C51   C53   A    
C18   H7    S    
N12   Ni2   S    
C43   C44   A    
C62   C63   A    
C15   H6    S    
C47   C48   A    
C78   H34   S    
C3    N14   A    
C50   C51   A    
C26   C27   A    
C54   H29   S    
C16   H16   S    
C77   H46   S    
N11   N12   A    
C39   H20   S    
C75   C77   A    
C9    C83   A    
C39   C46   A    
N5    Ni1   S    
C61   C72   S    
C48   C49   A    
C16   C23   A    
C7    C19   S    
C64   N6    A    
N6    Ni4   S    
C58   H32   S    
C65   H33   S    
C18   C24   A    
C3    H56   S    
C42   C43   A    
C56   N9    A    
N6    N16   A    
C40   H39   S    
C5    H57   S    
C21   H8    S    
N2    N4    A    
C54   C55   D    
C25   H9    S    
C52   N5    A    
C14   C15   A    
C52   H48   S    
C2    C8    A    
C69   C80   S    
C76   C81   A    
C29   H13   S    
C76   H50   S    
C67   H23   S    
C23   C55   S    
C57   H31   S    
C83   N12   A    
C59   H35   S    
C5    N15   A    
C55   H30   S    
C34   C52   A    
N10   Ni3   S    
C19   C20   A    
N8    N14   A    
C9    C68   S    
C14   H5    S    
C71   C72   A    
C12   C44   S    
C32   C33   A    
C11   C13   A    
C57   C58   D    
C74   H43   S    
C12   C64   A    
C33   C35   A    
C73   C80   A    
C4    N16   A    
C45   N8    A    
C9    C78   A    
C82   H53   S    
C69   C70   A    
C10   C11   A    
C79   C80   A    
C70   H41   S    
C20   C21   A    
C76   N7    A    
C8    C67   A    
C2    N13   A    
C49   C50   A    
C66   H40   S    
C27   H11   S    
C10   C17   A    
C15   C17   A    
C35   C46   S    
C20   C31   S    
C59   C65   A    
C71   C81   S    
C75   H44   S    
