data_str_m2_o13_o15_f0_pcu.sym.167
_audit_creation_date              2012-12-10T17:10:25-0500
_audit_creation_method            fapswitch 2.2
_symmetry_space_group_name_H-M    P1
_symmetry_Int_Tables_number       1
_space_group_crystal_system       triclinic
_cell_length_a                    10.856764
_cell_length_b                    12.986282
_cell_length_c                    11.618742
_cell_angle_alpha                 100.017413
_cell_angle_beta                  92.458962
_cell_angle_gamma                 90.500804
_cell_volume                      1611.43767177

loop_
_atom_site_label
_atom_site_type_symbol
_atom_type_description
_atom_site_fract_x
_atom_site_fract_y
_atom_site_fract_z
_atom_type_partial_charge
C1    C     C_R   0.498453 0.298948 0.478432 0.818986
C2    C     C_R   0.502606 0.701013 0.521426 0.794268
C3    C     C_R   0.506913 0.814353 0.533509 -0.046607
C4    C     C_R   0.497320 0.185469 0.465683 -0.050493
C5    C     C_R   0.469160 0.014584 0.344903 -0.213507
C6    C     C_R   0.538784 0.985053 0.653401 -0.216743
C7    C     C_R   0.472714 0.122830 0.355669 -0.206083
C8    C     C_R   0.533375 0.876943 0.643118 -0.193684
C9    C     C_R   0.519976 0.139329 0.564621 -0.260562
C10   C     C_R   0.486182 0.860366 0.434129 -0.274079
C11   C     C_R   0.516829 0.031239 0.554513 0.176245
C12   C     C_R   0.490723 0.968411 0.443896 0.182142
C13   C     C_R   0.385758 0.397496 0.022676 0.365607
C14   C     C_R   0.612903 0.601449 0.977565 0.354269
C15   C     C_R   0.396659 0.409503 0.146226 -0.044311
C16   C     C_R   0.602679 0.590584 0.854687 -0.011649
C17   C     C_R   0.547836 0.543598 0.156448 0.015760
C18   C     C_R   0.451063 0.456566 0.843347 0.022974
C19   C     C_R   0.540598 0.536364 0.033783 -0.104505
C20   C     C_R   0.457968 0.463085 0.966324 -0.100586
C21   C     C_R   0.261645 0.500810 0.502393 0.807365
C22   C     C_R   0.737097 0.511608 0.498535 0.814383
C23   C     C_R   0.132754 0.624560 0.703363 -0.234412
C24   C     C_R   0.878939 0.472171 0.276801 -0.227680
C25   C     C_R   0.070916 0.681804 0.795797 0.477853
C26   C     C_R   0.937070 0.413099 0.182931 0.502021
C27   C     C_R   0.945113 0.698248 0.782403 -0.214598
C28   C     C_R   0.047327 0.364337 0.203971 -0.232487
C29   C     C_R   0.880548 0.651463 0.680686 -0.223660
C30   C     C_R   0.104915 0.384050 0.315306 -0.228063
C31   C     C_R   0.938695 0.582134 0.592592 0.088833
C32   C     C_R   0.055645 0.457301 0.406013 0.083578
C33   C     C_R   0.068087 0.570153 0.601058 0.008899
C34   C     C_R   0.932866 0.486346 0.391936 0.007392
C35   C     C_R   0.870480 0.530743 0.492651 -0.179639
C36   C     C_R   0.126620 0.505149 0.506993 -0.163552
Cu1   Cu    Cu3+1 0.509250 0.507730 0.615930 0.934540
Cu2   Cu    Cu3+1 0.490750 0.492270 0.384070 0.919308
H1    H     H_    0.091289 0.315348 0.133010 0.148727
H2    H     H_    0.897858 0.748734 0.850054 0.145989
H3    H     H_    0.230944 0.625421 0.717237 0.194062
H4    H     H_    0.797249 0.512920 0.255918 0.176891
H5    H     H_    0.785493 0.673060 0.669671 0.148714
H6    H     H_    0.189797 0.344015 0.328735 0.153750
H7    H     H_    0.465930 0.812356 0.349129 0.151112
H8    H     H_    0.539780 0.187336 0.649677 0.145881
H9    H     H_    0.550716 0.842456 0.720612 0.148109
H10   H     H_    0.455035 0.157401 0.278287 0.152074
H11   H     H_    0.448933 0.967130 0.259691 0.130352
H12   H     H_    0.560181 0.032388 0.738246 0.148933
H13   H     H_    0.388538 0.401073 0.789398 0.179554
H14   H     H_    0.609360 0.600120 0.210110 0.166380
H15   H     H_    0.658986 0.638852 0.810705 0.121342
H16   H     H_    0.339703 0.364082 0.192838 0.126985
N1    N     N_R   0.523180 0.519350 0.790130 -0.212897
N2    N     N_R   0.476820 0.480650 0.209870 -0.208990
O1    O     O_R   0.506570 0.354460 0.582000 -0.584157
O2    O     O_R   0.493430 0.645540 0.418000 -0.594473
O3    O     O_R   0.490940 0.341410 0.386200 -0.593082
O4    O     O_R   0.509060 0.658590 0.613800 -0.601105
O5    O     O_R   0.327470 0.506520 0.597900 -0.596136
O6    O     O_R   0.672530 0.493480 0.402100 -0.595586
O7    O     O_R   0.311840 0.493460 0.402100 -0.577518
O8    O     O_R   0.688160 0.506540 0.597900 -0.570067
O9    O     O_3   0.298884 0.330184 0.956056 -0.630354
C37   C     C_3   0.302091 0.227386 0.981812 0.051569
H17   H     H_    0.226216 0.182044 0.928094 0.178465
H18   H     H_    0.281469 0.224623 0.073860 0.109306
C38   C     C_3   0.423837 0.172814 0.949334 -0.379731
H19   H     H_    0.442477 0.177315 0.857049 0.221585
H20   H     H_    0.500554 0.212898 0.006699 0.206717
C39   C     C_3   0.418779 0.058307 0.964175 -0.922037
H21   H     H_    0.400305 0.052400 0.056116 0.248831
H22   H     H_    0.508354 0.021054 0.942230 0.250570
H23   H     H_    0.345337 0.015213 0.904939 0.272719
O10   O     O_3   0.700246 0.668451 0.042191 -0.620101
C40   C     C_3   0.670362 0.773152 0.036779 0.013164
H24   H     H_    0.570417 0.788016 0.050491 0.134591
H25   H     H_    0.694223 0.792095 0.950564 0.135668
C41   C     C_3   0.745328 0.844879 0.133429 -0.303894
H26   H     H_    0.715726 0.831441 0.220148 0.216309
H27   H     H_    0.844792 0.826098 0.126617 0.226703
C42   C     C_3   0.728344 0.959703 0.124525 -0.934173
H28   H     H_    0.763709 0.975071 0.040792 0.258627
H29   H     H_    0.780736 0.009783 0.197935 0.265114
H30   H     H_    0.629450 0.980366 0.128960 0.257585
O11   O     O_3   0.136808 0.726906 0.896664 -0.624670
C43   C     C_3   0.117015 0.666071 0.984193 0.068179
H31   H     H_    0.131793 0.581226 0.951080 0.166233
H32   H     H_    0.021343 0.676941 0.014778 0.170988
C44   C     C_3   0.208259 0.701058 0.087868 -0.369296
H33   H     H_    0.303970 0.688404 0.058503 0.220047
H34   H     H_    0.197248 0.785879 0.121290 0.223488
C45   C     C_3   0.187764 0.640077 0.186789 -0.836343
H35   H     H_    0.094410 0.655063 0.221018 0.253533
H36   H     H_    0.257571 0.664997 0.259209 0.261541
H37   H     H_    0.196967 0.554925 0.155073 0.270711
O12   O     O_3   0.892880 0.412382 0.069517 -0.607966
C46   C     C_3   0.800111 0.334291 0.037837 0.056797
H38   H     H_    0.727726 0.366578 0.984326 0.177935
H39   H     H_    0.753059 0.311607 0.113655 0.122630
C47   C     C_3   0.854466 0.237976 0.963190 -0.328926
H40   H     H_    0.906741 0.262471 0.892000 0.242172
H41   H     H_    0.919059 0.199406 0.018465 0.203403
C48   C     C_3   0.753821 0.159749 0.908865 -0.961116
H42   H     H_    0.700619 0.134360 0.978602 0.263726
H43   H     H_    0.796086 0.090077 0.857076 0.262014
H44   H     H_    0.690506 0.195591 0.849935 0.255323

loop_
_geom_bond_atom_site_label_1
_geom_bond_atom_site_label_2
_ccdc_geom_bond_type
C37   H18   S    
O11   C43   S    
C27   C29   A    
C24   H4    S    
C19   C20   A    
C5    H11   S    
C21   C36   S    
C13   O9    S    
C40   H24   S    
C22   C35   S    
C48   H43   S    
C32   C36   A    
C24   C26   A    
C41   C42   S    
C2    O4    A    
C37   C38   S    
C44   H34   S    
C25   O11   S    
C33   C36   A    
C47   C48   S    
C34   C35   A    
C38   H20   S    
C16   H15   S    
Cu2   O2    S    
C46   H38   S    
C23   C33   A    
C31   C33   A    
C21   O5    A    
C37   H17   S    
C9    H8    S    
C29   H5    S    
C30   H6    S    
C38   H19   S    
C4    C7    A    
C17   H14   S    
C18   H13   S    
C40   H25   S    
C48   H44   S    
C21   O7    A    
C15   H16   S    
O10   C40   S    
C5    C12   A    
C39   H22   S    
C3    C8    A    
C6    C11   A    
C5    C7    A    
C41   H26   S    
C6    C8    A    
C28   H1    S    
C24   C34   A    
C14   O10   S    
C38   C39   S    
C47   H41   S    
Cu1   Cu2   S    
C1    O1    A    
C22   O6    A    
C42   H28   S    
C43   C44   S    
C27   H2    S    
C46   C47   S    
C10   H7    S    
C45   H35   S    
C6    H12   S    
C45   H36   S    
C9    C11   A    
C17   N2    A    
C10   C12   A    
C18   N1    A    
C26   O12   S    
C41   H27   S    
C46   H39   S    
C43   H32   S    
O12   C46   S    
C13   C15   A    
C14   C16   A    
C44   H33   S    
Cu1   O8    S    
Cu2   O7    S    
C40   C41   S    
C13   C20   A    
C42   H29   S    
C14   C19   A    
C39   H21   S    
C23   H3    S    
Cu1   O5    S    
C11   C12   A    
C2    O2    A    
C25   C27   A    
C48   H42   S    
C26   C28   A    
C45   H37   S    
C1    C4    S    
C15   N2    A    
C1    O3    A    
C2    C3    S    
C8    H9    S    
C29   C31   A    
C3    C10   A    
C7    H10   S    
C44   C45   S    
C30   C32   A    
C39   H23   S    
C31   C35   A    
C28   C30   A    
C17   C19   A    
C18   C20   A    
C23   C25   A    
C47   H40   S    
C16   N1    A    
Cu1   O4    S    
C22   O8    A    
Cu2   O3    S    
Cu1   N1    S    
C42   H30   S    
Cu2   N2    S    
C43   H31   S    
O9    C37   S    
C4    C9    A    
Cu1   O1    S    
C32   C34   A    
Cu2   O6    S    
