data_str_m2_o10_o29_f0_pcu.sym.151
_audit_creation_date              2012-12-10T16:51:14-0500
_audit_creation_method            fapswitch 2.2
_symmetry_space_group_name_H-M    P1
_symmetry_Int_Tables_number       1
_space_group_crystal_system       triclinic
_cell_length_a                    27.770014
_cell_length_b                    8.716641
_cell_length_c                    7.41909
_cell_angle_alpha                 103.13594
_cell_angle_beta                  94.13746
_cell_angle_gamma                 92.514303
_cell_volume                      1740.96381733

loop_
_atom_site_label
_atom_site_type_symbol
_atom_type_description
_atom_site_fract_x
_atom_site_fract_y
_atom_site_fract_z
_atom_type_partial_charge
C1    C     C_R   0.496973 0.199967 0.453152 0.804071
C2    C     C_R   0.499082 0.799560 0.546329 0.807035
C3    C     C_R   0.102008 0.468538 0.527423 -0.113659
C4    C     C_R   0.897865 0.497326 0.477756 -0.112466
C5    C     C_R   0.123982 0.337071 0.424449 -0.129882
C6    C     C_R   0.876235 0.634853 0.567640 -0.133050
C7    C     C_R   0.094539 0.208766 0.315613 0.515601
C8    C     C_R   0.906004 0.768134 0.661846 0.509925
C9    C     C_R   0.131407 0.595122 0.640477 -0.004567
C10   C     C_R   0.868158 0.365912 0.377319 -0.007634
C11   C     C_R   0.354363 0.494140 0.509145 -0.143050
C12   C     C_R   0.645538 0.497330 0.490750 -0.148301
C13   C     C_R   0.970149 0.351904 0.394925 0.084865
C14   C     C_R   0.029543 0.610069 0.617218 0.082469
C15   C     C_R   0.978583 0.620638 0.596608 -0.028622
C16   C     C_R   0.021386 0.346505 0.403593 -0.027644
C17   C     C_R   0.949061 0.490224 0.489266 0.069454
C18   C     C_R   0.050782 0.474644 0.516571 0.068618
C19   C     C_R   0.938971 0.222742 0.295804 -0.224388
C20   C     C_R   0.060255 0.730569 0.736428 -0.220575
C21   C     C_R   0.889143 0.230271 0.286740 -0.165074
C22   C     C_R   0.110086 0.723444 0.746479 -0.163989
C23   C     C_R   0.407391 0.499391 0.502497 0.785229
C24   C     C_R   0.592576 0.499038 0.497374 0.825052
C25   C     C_R   0.044371 0.216914 0.301887 -0.303150
C26   C     C_R   0.956086 0.758905 0.678091 -0.303923
C27   C     C_2   0.494658 0.032055 0.423878 0.157611
C28   C     C_2   0.492090 0.964588 0.569847 0.194751
C29   C     C_R   0.174970 0.339599 0.431922 0.576107
C30   C     C_R   0.825293 0.634171 0.560134 0.575268
C31   C     C_R   0.181818 0.591767 0.643616 0.537479
C32   C     C_R   0.817768 0.371476 0.373035 0.540425
C33   C     C_R   0.272889 0.497270 0.366695 -0.199866
C34   C     C_R   0.726149 0.482727 0.634955 -0.188317
C35   C     C_R   0.323087 0.511642 0.356779 0.470413
C36   C     C_R   0.676007 0.477584 0.644241 0.464458
C37   C     C_R   0.334564 0.470130 0.670677 -0.314239
C38   C     C_R   0.666200 0.514981 0.328376 -0.280947
C39   C     C_R   0.284676 0.461145 0.680538 -0.094826
C40   C     C_R   0.716154 0.515924 0.319318 -0.087682
C41   C     C_R   0.253772 0.473861 0.528265 0.283134
C42   C     C_R   0.746171 0.500970 0.473056 0.278852
Cu1   Cu    Cu3+1 0.505380 0.517380 0.684380 0.996309
Cu2   Cu    Cu3+1 0.494620 0.482620 0.315620 0.995260
H1    H     H_    0.357679 0.456441 0.789231 0.206843
H2    H     H_    0.643762 0.529877 0.208756 0.211594
H3    H     H_    0.461391 0.381167 0.948454 0.240732
H4    H     H_    0.538336 0.620139 0.051650 0.253139
H5    H     H_    0.269983 0.442923 0.805901 0.170316
H6    H     H_    0.731593 0.529845 0.193601 0.169856
H7    H     H_    0.749634 0.471307 0.753690 0.151493
H8    H     H_    0.248497 0.504821 0.248814 0.148862
H9    H     H_    0.867021 0.127481 0.209831 0.207139
H10   H     H_    0.131927 0.820267 0.837696 0.212912
H11   H     H_    0.951580 0.111483 0.226401 0.149781
H12   H     H_    0.047115 0.832060 0.826675 0.154982
H13   H     H_    0.024670 0.119584 0.205630 0.151748
H14   H     H_    0.976286 0.864885 0.753944 0.152142
N1    N     N_R   0.202404 0.466736 0.537730 -0.461920
N2    N     N_R   0.797558 0.503257 0.465764 -0.463634
N3    N     N_2   0.486510 0.456430 0.038510 -0.198929
N4    N     N_2   0.513490 0.543570 0.961490 -0.200887
O1    O     O_R   0.503500 0.286120 0.619780 -0.558592
O2    O     O_R   0.496500 0.713880 0.380220 -0.572069
O3    O     O_R   0.494410 0.256780 0.308360 -0.553716
O4    O     O_R   0.505590 0.743220 0.691640 -0.559412
O5    O     O_R   0.434810 0.514700 0.655690 -0.617794
O6    O     O_R   0.565190 0.485300 0.344310 -0.594974
O7    O     O_R   0.425720 0.485350 0.344280 -0.542185
O8    O     O_R   0.574280 0.514650 0.655720 -0.528524
O9    O     O_2   0.197223 0.217238 0.333677 -0.477845
O10   O     O_2   0.803379 0.762094 0.647273 -0.472067
O11   O     O_2   0.789089 0.245155 0.279765 -0.531563
O12   O     O_2   0.210139 0.714151 0.748542 -0.545117
O13   O     O_3   0.114559 0.079239 0.209569 -0.547075
C43   C     C_3   0.108872 0.950632 0.294065 -0.247863
H15   H     H_    0.070156 0.909648 0.287825 0.136183
H16   H     H_    0.125080 0.980201 0.440512 0.176411
H17   H     H_    0.128140 0.850823 0.216705 0.195172
O14   O     O_3   0.886478 0.905814 0.750333 -0.545057
C44   C     C_3   0.890162 0.016708 0.639181 -0.222569
H18   H     H_    0.871555 0.970049 0.497897 0.169818
H19   H     H_    0.928569 0.053488 0.629221 0.136256
H20   H     H_    0.872051 0.123739 0.704921 0.199532
O15   O     O_3   0.657285 0.460727 0.806815 -0.579778
C45   C     C_3   0.654670 0.299069 0.808190 -0.262894
H21   H     H_    0.691382 0.253520 0.816392 0.172968
H22   H     H_    0.632158 0.227734 0.684680 0.158087
H23   H     H_    0.637121 0.284273 0.933326 0.201904
O16   O     O_3   0.341619 0.532837 0.195082 -0.578094
C46   C     C_3   0.330521 0.682605 0.166975 -0.331006
H24   H     H_    0.341046 0.778288 0.293242 0.148143
H25   H     H_    0.291575 0.684964 0.121878 0.192576
H26   H     H_    0.351370 0.707259 0.053630 0.184485
O17   O     O_3   0.498570 0.945512 0.244209 -0.556983
C47   C     C_3   0.451533 0.911162 0.153609 -0.206047
H27   H     H_    0.433322 0.020473 0.144727 0.139774
H28   H     H_    0.428763 0.839254 0.224782 0.135780
H29   H     H_    0.454265 0.841060 0.010402 0.216438
O18   O     O_3   0.481183 0.048514 0.742958 -0.548179
C48   C     C_3   0.430290 0.048144 0.742758 -0.331465
H30   H     H_    0.413899 0.926304 0.725907 0.142733
H31   H     H_    0.414035 0.103051 0.632891 0.135781
H32   H     H_    0.420897 0.119584 0.877663 0.186122

loop_
_geom_bond_atom_site_label_1
_geom_bond_atom_site_label_2
_ccdc_geom_bond_type
C38   C40   A    
C48   H30   S    
C8    C26   A    
C23   O7    A    
C27   O17   S    
O17   C47   S    
C34   C42   A    
C43   H17   S    
O13   C43   S    
C44   H18   S    
Cu1   O1    S    
C39   C41   A    
O15   C45   S    
Cu2   O2    S    
C33   H8    S    
C34   H7    S    
C19   C21   A    
C43   H16   S    
C45   H22   S    
C9    C22   A    
C31   N1    A    
C47   H29   S    
C3    C18   A    
C23   O5    A    
C11   C37   A    
C14   C18   A    
C29   N1    A    
C47   H28   S    
C1    O3    A    
C12   C36   A    
C20   H12   S    
C28   O18   S    
C40   C42   A    
C48   H31   S    
Cu2   O3    S    
C25   H13   S    
C1    O1    A    
C44   H19   S    
C2    O2    A    
C5    C29   A    
C10   C21   A    
C13   C19   A    
C24   O8    A    
C14   C20   A    
C43   H15   S    
C41   N1    S    
C22   H10   S    
C42   N2    S    
C32   O11   S    
C5    C7    A    
C9    C31   A    
C45   H21   S    
O14   C44   S    
C15   C26   A    
C6    C8    A    
C3    C5    A    
C30   N2    A    
Cu1   Cu2   S    
C3    C9    A    
C46   H25   S    
H4    N4    S    
C47   H27   S    
Cu2   O7    S    
C16   C18   A    
C26   H14   S    
C4    C17   A    
C4    C6    A    
C6    C30   A    
C20   C22   A    
C48   H32   S    
C36   O15   S    
Cu2   O6    S    
C32   N2    A    
C37   H1    S    
C46   H24   S    
C44   H20   S    
C8    O14   S    
C19   H11   S    
C16   C25   A    
C15   C17   A    
C39   H5    S    
C30   O10   S    
C31   O12   S    
C45   H23   S    
H3    N3    S    
C7    O13   S    
C2    O4    A    
Cu2   N3    S    
Cu1   O8    S    
C12   C24   S    
C7    C25   A    
C13   C17   A    
C33   C41   A    
C11   C35   A    
C37   C39   A    
C46   H26   S    
C21   H9    S    
O16   C46   S    
Cu1   O4    S    
C40   H6    S    
C11   C23   S    
O18   C48   S    
C33   C35   A    
C34   C36   A    
C12   C38   A    
N3    N4    D    
C38   H2    S    
C24   O6    A    
C35   O16   S    
C10   C32   A    
Cu1   O5    S    
C13   C16   A    
C27   C28   D    
C1    C27   S    
C14   C15   A    
C2    C28   S    
C4    C10   A    
Cu1   N4    S    
C29   O9    S    
