data_str_m3_o4_o14_f0_pcu.sym.12
_audit_creation_date              2012-12-10T20:28:39-0500
_audit_creation_method            fapswitch 2.2
_symmetry_space_group_name_H-M    P1
_symmetry_Int_Tables_number       1
_space_group_crystal_system       triclinic
_cell_length_a                    10.598818
_cell_length_b                    10.689732
_cell_length_c                    9.835326
_cell_angle_alpha                 89.846671
_cell_angle_beta                  88.63568
_cell_angle_gamma                 90.067087
_cell_volume                      1114.00717968

loop_
_atom_site_label
_atom_site_type_symbol
_atom_type_description
_atom_site_fract_x
_atom_site_fract_y
_atom_site_fract_z
_atom_type_partial_charge
C1    C     C_R   0.497446 0.259771 0.500153 0.915305
C2    C     C_R   0.457174 0.935502 0.378527 -0.217685
C3    C     C_R   0.477339 0.871292 0.500540 -0.102161
C4    C     C_R   0.261528 0.478894 0.502626 0.941406
C5    C     C_R   0.475703 0.935560 0.623451 0.118108
C6    C     C_3   0.563675 0.927393 0.739733 -0.424516
C7    C     C_3   0.565290 0.069123 0.739341 -0.506366
C8    C     C_R   0.552637 0.403832 0.070325 0.227191
C9    C     C_R   0.434859 0.588938 0.073452 -0.078768
C10   C     C_R   0.435090 0.589129 0.929231 -0.070385
C11   C     C_R   0.552226 0.403469 0.927559 0.250221
C12   C     C_R   0.059556 0.478842 0.632586 0.024383
C13   C     C_3   0.687276 0.364881 0.918701 -0.502224
C14   C     C_3   0.687857 0.366432 0.072784 -0.505167
C15   C     C_R   0.496297 0.740046 0.499926 0.883002
C16   C     C_R   0.741096 0.507978 0.498631 0.876249
C17   C     C_R   0.104113 0.462640 0.767097 -0.027558
C18   C     C_R   0.050274 0.534437 0.872989 -0.238217
C19   C     C_R   0.946584 0.612177 0.849816 -0.026972
C20   C     C_R   0.891486 0.609831 0.721758 -0.224081
C21   C     C_R   0.942007 0.534039 0.616438 0.058274
C22   C     C_2   0.124347 0.348332 0.276909 0.968421
C23   C     C_R   0.128233 0.447150 0.511837 -0.134213
C24   C     C_2   0.191134 0.358634 0.802333 0.976448
C25   C     C_2   0.888586 0.686754 0.962005 0.910852
C26   C     C_R   0.064079 0.417385 0.392441 -0.063437
C27   C     C_R   0.937047 0.445944 0.387667 -0.226590
C28   C     C_R   0.876644 0.506168 0.497082 -0.113887
C29   C     C_R   0.476883 0.063190 0.623428 0.123454
C30   C     C_R   0.479234 0.128234 0.500668 -0.075904
C31   C     C_R   0.458604 0.064719 0.378523 -0.174595
H1    H     H_    0.656279 0.885205 0.710533 0.224728
H2    H     H_    0.700669 0.272285 0.118634 0.207783
H3    H     H_    0.748993 0.441286 0.113609 0.232585
H4    H     H_    0.269645 0.193859 0.748304 0.338402
H5    H     H_    0.086642 0.526901 0.974578 0.234869
H6    H     H_    0.746537 0.799931 0.025070 0.344257
H7    H     H_    0.808538 0.666215 0.704680 0.190079
H8    H     H_    0.884234 0.417130 0.300257 0.189381
H9    H     H_    0.449387 0.886956 0.282523 0.167697
H10   H     H_    0.517288 0.886806 0.832364 0.208337
H11   H     H_    0.520088 0.110564 0.831890 0.209011
H12   H     H_    0.452365 0.113617 0.282359 0.172031
H13   H     H_    0.262687 0.232573 0.211196 0.345957
H14   H     H_    0.658759 0.109086 0.709106 0.206878
H15   H     H_    0.385747 0.662006 0.129059 0.140290
H16   H     H_    0.386029 0.662217 0.875687 0.136702
H17   H     H_    0.699741 0.269772 0.875749 0.203280
H18   H     H_    0.748831 0.437426 0.871377 0.235834
N1    N     N_R   0.499160 0.499140 0.142800 -0.106807
N2    N     N_R   0.499160 0.499180 0.857150 -0.103280
O1    O     O_R   0.500020 0.316790 0.614690 -0.617475
O2    O     O_R   0.231224 0.274893 0.297653 -0.789575
O3    O     O_2   0.242660 0.357180 0.912271 -0.641709
O4    O     O_R   0.211054 0.259918 0.711341 -0.805591
O5    O     O_2   0.936875 0.688943 0.073729 -0.628235
O6    O     O_R   0.777617 0.754020 0.940670 -0.833599
O7    O     O_R   0.500000 0.316760 0.385350 -0.610718
O8    O     O_R   0.316770 0.500020 0.614690 -0.634514
O9    O     O_R   0.316760 0.499980 0.385350 -0.598041
O10   O     O_R   0.500000 0.683240 0.614650 -0.624666
O11   O     O_R   0.499980 0.683210 0.385310 -0.626998
O12   O     O_R   0.683240 0.500020 0.614650 -0.626094
O13   O     O_R   0.683230 0.499980 0.385310 -0.617955
O14   O     O_2   0.077684 0.351670 0.164436 -0.626424
Zn1   Zn    Zn3+2 0.500010 0.500020 0.653130 0.966150
Zn2   Zn    Zn3+2 0.499990 0.499980 0.346870 0.976845

loop_
_geom_bond_atom_site_label_1
_geom_bond_atom_site_label_2
_ccdc_geom_bond_type
C12   C17   A    
C16   C28   S    
C13   H17   S    
C6    H1    S    
C22   O14   D    
C14   H3    S    
C29   C30   A    
C7    C29   S    
C16   O12   A    
C2    H9    S    
C20   H7    S    
C9    C10   A    
H13   O2    S    
C19   C20   A    
C25   O5    D    
C4    O9    A    
C14   H2    S    
C17   C18   A    
C15   O10   A    
O12   Zn1   S    
C3    C15   S    
C9    H15   S    
C1    O7    A    
C24   O4    S    
C5    C6    S    
C11   C13   S    
C12   C23   A    
C26   C27   A    
C6    C7    S    
C31   H12   S    
O11   Zn2   S    
C8    C11   A    
C13   H18   S    
C10   N2    A    
C7    H14   S    
C4    O8    A    
C1    C30   S    
C15   O11   A    
C2    C3    A    
C22   O2    S    
C5    C29   A    
O8    Zn1   S    
C30   C31   A    
C19   C25   S    
C1    O1    A    
C23   C26   A    
C17   C24   S    
C11   N2    A    
C24   O3    D    
C25   O6    S    
O13   Zn2   S    
C8    N1    A    
O7    Zn2   S    
C10   H16   S    
O1    Zn1   S    
C20   C21   A    
O9    Zn2   S    
C18   C19   A    
C22   C26   S    
C7    H11   S    
C6    H10   S    
C27   C28   A    
C4    C23   S    
C12   C21   A    
C8    C14   S    
C16   O13   A    
C13   C14   S    
C18   H5    S    
O10   Zn1   S    
C21   C28   A    
H4    O4    S    
H6    O6    S    
C9    N1    A    
N1    Zn2   S    
C27   H8    S    
C2    C31   A    
C3    C5    A    
N2    Zn1   S    
