data_str_m2_o36_o36_f0_pts.sym.19
_audit_creation_date              2012-10-26T21:27:08-0400
_audit_creation_method            fapswitch 2.2
_symmetry_space_group_name_H-M    P1
_symmetry_Int_Tables_number       1
_space_group_crystal_system       triclinic
_cell_length_a                    12.247552
_cell_length_b                    12.247601
_cell_length_c                    23.149877
_cell_angle_alpha                 89.998964
_cell_angle_beta                  89.999288
_cell_angle_gamma                 90.000023
_cell_volume                      3472.55401112

loop_
_atom_site_label
_atom_site_type_symbol
_atom_type_description
_atom_site_fract_x
_atom_site_fract_y
_atom_site_fract_z
_atom_type_partial_charge
C1    C     C_3   0.000006 0.999994 0.250293 0.032735
C2    C     C_R   0.901256 0.000575 0.291452 -0.055821
C3    C     C_R   0.999835 0.651505 0.921983 0.580979
C4    C     C_R   0.000036 0.348753 0.078303 0.597618
C5    C     C_R   0.348495 0.999835 0.421984 0.581005
C6    C     C_R   0.651245 0.000036 0.578304 0.597618
C7    C     C_R   0.000165 0.348495 0.921983 0.581003
C8    C     C_R   0.999964 0.651243 0.078305 0.597622
C9    C     C_R   0.651504 0.000166 0.421983 0.580990
C10   C     C_R   0.348756 0.999963 0.578305 0.597606
C11   C     C_R   0.090925 0.113968 0.172727 -0.124879
C12   C     C_3   0.999993 0.000008 0.750294 0.032733
C13   C     C_R   0.909734 0.887926 0.828753 -0.123697
C14   C     C_R   0.886016 0.090931 0.672732 -0.124878
C15   C     C_R   0.112094 0.909728 0.328746 -0.123691
C16   C     C_R   0.909081 0.886021 0.172732 -0.124870
C17   C     C_R   0.090269 0.112100 0.828739 -0.123678
C18   C     C_R   0.113966 0.909085 0.672730 -0.124865
C19   C     C_R   0.887920 0.090261 0.328747 -0.123689
C20   C     C_R   0.090287 0.832263 0.798848 -0.136642
C21   C     C_R   0.907780 0.164897 0.200455 -0.135636
C22   C     C_R   0.832262 0.909702 0.298851 -0.136667
C23   C     C_R   0.000191 0.098456 0.209048 -0.051924
C24   C     C_R   0.164895 0.092232 0.700450 -0.135633
C25   C     C_R   0.909693 0.167736 0.798857 -0.136714
C26   C     C_R   0.092227 0.835090 0.200454 -0.135634
C27   C     C_R   0.167741 0.090293 0.298850 -0.136697
C28   C     C_R   0.835090 0.907784 0.700459 -0.135635
C29   C     C_R   0.093429 0.197757 0.132051 0.215928
C30   C     C_R   0.907445 0.805358 0.870506 0.218082
C31   C     C_R   0.802233 0.093432 0.632054 0.215926
C32   C     C_R   0.194658 0.907439 0.370498 0.218066
C33   C     C_R   0.906570 0.802229 0.132060 0.215933
C34   C     C_R   0.999415 0.901259 0.791453 -0.055823
C35   C     C_R   0.092565 0.194668 0.870488 0.218059
C36   C     C_R   0.197764 0.906572 0.632061 0.215931
C37   C     C_R   0.805348 0.092557 0.370496 0.218074
C38   C     C_R   0.088970 0.748112 0.839341 0.207805
C39   C     C_R   0.906849 0.245936 0.157994 0.207305
C40   C     C_R   0.748112 0.911023 0.339346 0.207808
C41   C     C_R   0.245939 0.093156 0.657992 0.207310
C42   C     C_R   0.911008 0.251874 0.839358 0.207808
C43   C     C_R   0.093154 0.754051 0.157995 0.207308
C44   C     C_R   0.251881 0.088981 0.339349 0.207808
C45   C     C_R   0.901529 0.000196 0.709051 -0.051924
C46   C     C_R   0.754055 0.906851 0.657996 0.207306
C47   C     C_R   0.000205 0.263422 0.123426 0.034842
C48   C     C_R   0.998924 0.736278 0.876846 0.031930
C49   C     C_R   0.736571 0.000206 0.623428 0.034838
C50   C     C_R   0.263723 0.998926 0.376847 0.031952
C51   C     C_R   0.999794 0.736567 0.123430 0.034836
C52   C     C_R   0.001073 0.263723 0.876847 0.031942
C53   C     C_R   0.263428 0.999795 0.623429 0.034833
C54   C     C_R   0.736275 0.001076 0.376844 0.031931
C55   C     C_3   0.265213 0.266829 0.131444 0.014419
C56   C     C_R   0.098756 0.999414 0.291450 -0.055814
C57   C     C_3   0.352207 0.311642 0.091200 -0.354776
C58   C     C_3   0.721951 0.781740 0.880146 0.006972
C59   C     C_3   0.639222 0.733872 0.922105 -0.355063
C60   C     C_3   0.733143 0.265207 0.631441 0.014425
C61   C     C_3   0.688348 0.352206 0.591195 -0.354785
C62   C     C_3   0.218385 0.721961 0.380113 0.007000
C63   C     C_3   0.266244 0.639228 0.422072 -0.355051
C64   C     C_3   0.734805 0.733118 0.131479 0.014410
C65   C     C_3   0.647771 0.688338 0.091251 -0.354812
C66   C     C_3   0.278029 0.218495 0.880067 0.007023
C67   C     C_R   0.999818 0.901532 0.209049 -0.051929
C68   C     C_3   0.360782 0.266329 0.922021 -0.355051
C69   C     C_3   0.266885 0.734811 0.631486 0.014406
C70   C     C_3   0.311654 0.647764 0.591263 -0.354812
C71   C     C_3   0.781652 0.278041 0.380101 0.006988
C72   C     C_3   0.733792 0.360788 0.422052 -0.355068
C73   C     C_3   0.166077 0.592947 0.805052 -0.001310
C74   C     C_3   0.265304 0.518717 0.808792 -0.363952
C75   C     C_3   0.733158 0.255925 0.123630 0.014259
C76   C     C_3   0.648388 0.337386 0.102721 -0.361622
C77   C     C_3   0.592979 0.833880 0.305044 -0.001307
C78   C     C_R   0.000576 0.098758 0.791450 -0.055814
C79   C     C_3   0.518619 0.734765 0.308882 -0.363941
C80   C     C_3   0.255959 0.266850 0.623630 0.014259
C81   C     C_3   0.337441 0.351600 0.602720 -0.361616
C82   C     C_3   0.833743 0.406932 0.805034 -0.001214
C83   C     C_3   0.734783 0.481479 0.809059 -0.363830
C84   C     C_3   0.266848 0.744043 0.123633 0.014257
C85   C     C_3   0.351601 0.662569 0.102720 -0.361618
C86   C     C_3   0.406962 0.166204 0.305026 -0.001308
C87   C     C_3   0.481401 0.265246 0.308947 -0.363940
C88   C     C_3   0.744077 0.733160 0.623634 0.014255
C89   C     C_R   0.098453 0.999822 0.709047 -0.051931
C90   C     C_3   0.662622 0.648387 0.602724 -0.361629
Cu1   Cu    Cu3+1 0.889520 0.500000 0.000000 0.946335
Cu2   Cu    Cu3+1 0.110480 0.500000 0.000000 0.946373
Cu3   Cu    Cu3+1 0.500000 0.889520 0.500000 0.946385
Cu4   Cu    Cu3+1 0.500000 0.110480 0.500000 0.946341
H1    H     H_    0.161316 0.060825 0.176409 0.125211
H2    H     H_    0.833830 0.153099 0.225074 0.120106
H3    H     H_    0.843614 0.835256 0.274604 0.136205
H4    H     H_    0.153097 0.166184 0.725066 0.120097
H5    H     H_    0.835242 0.156374 0.774615 0.136169
H6    H     H_    0.166178 0.846886 0.225072 0.120103
H7    H     H_    0.156384 0.164739 0.274602 0.136186
H8    H     H_    0.846886 0.833835 0.725079 0.120109
H9    H     H_    0.304453 0.209742 0.162509 0.104268
H10   H     H_    0.229906 0.337377 0.155673 0.136225
H11   H     H_    0.314719 0.365868 0.058277 0.169112
H12   H     H_    0.842117 0.944610 0.826159 0.133657
H13   H     H_    0.411966 0.359880 0.116573 0.071908
H14   H     H_    0.394665 0.243342 0.069085 0.142578
H15   H     H_    0.731003 0.723632 0.843349 0.110442
H16   H     H_    0.689164 0.860542 0.863819 0.132113
H17   H     H_    0.625616 0.791202 0.958564 0.165346
H18   H     H_    0.560414 0.719790 0.899580 0.093885
H19   H     H_    0.669529 0.654858 0.939352 0.152532
H20   H     H_    0.790212 0.304446 0.662515 0.104238
H21   H     H_    0.662584 0.229893 0.655660 0.136238
H22   H     H_    0.634144 0.314720 0.558263 0.169119
H23   H     H_    0.939157 0.161322 0.676414 0.125215
H24   H     H_    0.640092 0.411958 0.616563 0.071910
H25   H     H_    0.756658 0.394672 0.569093 0.142556
H26   H     H_    0.276537 0.731076 0.343341 0.110456
H27   H     H_    0.139625 0.689144 0.363750 0.132099
H28   H     H_    0.208885 0.625576 0.458514 0.165336
H29   H     H_    0.280384 0.560440 0.399539 0.093848
H30   H     H_    0.345227 0.669560 0.439344 0.152576
H31   H     H_    0.695595 0.790179 0.162568 0.104302
H32   H     H_    0.770138 0.662550 0.155683 0.136257
H33   H     H_    0.685225 0.634130 0.058310 0.169086
H34   H     H_    0.055419 0.842103 0.326148 0.133677
H35   H     H_    0.588030 0.640090 0.116633 0.071940
H36   H     H_    0.605299 0.756657 0.069160 0.142553
H37   H     H_    0.268854 0.276696 0.843321 0.110462
H38   H     H_    0.310864 0.139773 0.863661 0.132082
H39   H     H_    0.374495 0.208923 0.958436 0.165304
H40   H     H_    0.439541 0.280536 0.899471 0.093828
H41   H     H_    0.330433 0.345274 0.939334 0.152597
H42   H     H_    0.209829 0.695613 0.662585 0.104331
H43   H     H_    0.337459 0.770151 0.655682 0.136266
H44   H     H_    0.365864 0.685207 0.558317 0.169073
H45   H     H_    0.838690 0.939162 0.176416 0.125217
H46   H     H_    0.359897 0.588025 0.616647 0.071939
H47   H     H_    0.243329 0.605295 0.569175 0.142577
H48   H     H_    0.723514 0.268937 0.343322 0.110453
H49   H     H_    0.860427 0.310842 0.363746 0.132104
H50   H     H_    0.791147 0.374440 0.458495 0.165320
H51   H     H_    0.719667 0.439573 0.399512 0.093876
H52   H     H_    0.654802 0.330469 0.439323 0.152549
H53   H     H_    0.158724 0.622470 0.759697 0.101540
H54   H     H_    0.092497 0.543916 0.816364 0.106573
H55   H     H_    0.274173 0.486998 0.853492 0.165223
H56   H     H_    0.157899 0.055432 0.826137 0.133697
H57   H     H_    0.255418 0.448859 0.778648 0.081002
H58   H     H_    0.340138 0.564701 0.796846 0.148574
H59   H     H_    0.692851 0.196755 0.153224 0.109955
H60   H     H_    0.764856 0.211410 0.085007 0.146751
H61   H     H_    0.687395 0.400929 0.075429 0.169865
H62   H     H_    0.586285 0.294243 0.076427 0.079431
H63   H     H_    0.608410 0.377349 0.140233 0.136923
H64   H     H_    0.622539 0.841022 0.259689 0.101610
H65   H     H_    0.544029 0.907562 0.316265 0.106441
H66   H     H_    0.486858 0.726120 0.353586 0.165305
H67   H     H_    0.060825 0.838694 0.676415 0.125219
H68   H     H_    0.448794 0.744616 0.278716 0.080997
H69   H     H_    0.564513 0.659825 0.297033 0.148585
H70   H     H_    0.196801 0.307170 0.653224 0.109955
H71   H     H_    0.211436 0.235162 0.585009 0.146750
H72   H     H_    0.400976 0.312578 0.575429 0.169875
H73   H     H_    0.294314 0.413712 0.576423 0.079420
H74   H     H_    0.377413 0.391570 0.640231 0.136920
H75   H     H_    0.840502 0.377300 0.759671 0.101691
H76   H     H_    0.907607 0.455768 0.816092 0.106159
H77   H     H_    0.726553 0.513335 0.853773 0.165401
H78   H     H_    0.944601 0.157881 0.326149 0.133674
H79   H     H_    0.744531 0.551238 0.778836 0.080983
H80   H     H_    0.659650 0.435701 0.797397 0.148593
H81   H     H_    0.307166 0.803198 0.153228 0.109957
H82   H     H_    0.235158 0.788570 0.085013 0.146747
H83   H     H_    0.312582 0.599040 0.075426 0.169869
H84   H     H_    0.413713 0.705703 0.076426 0.079418
H85   H     H_    0.391570 0.622589 0.140229 0.136927
H86   H     H_    0.377354 0.159250 0.259674 0.101666
H87   H     H_    0.455868 0.092445 0.316161 0.106324
H88   H     H_    0.513215 0.273692 0.353649 0.165358
H89   H     H_    0.164732 0.843613 0.774596 0.136225
H90   H     H_    0.551188 0.255457 0.278749 0.080995
H91   H     H_    0.435552 0.340266 0.297192 0.148607
H92   H     H_    0.803242 0.692855 0.653231 0.109957
H93   H     H_    0.788597 0.764858 0.585013 0.146749
H94   H     H_    0.599084 0.687390 0.575429 0.169865
H95   H     H_    0.705772 0.586284 0.576432 0.079431
H96   H     H_    0.622653 0.608409 0.640234 0.136923
O1    O     O_R   0.907020 0.615090 0.941240 -0.485102
O2    O     O_R   0.092980 0.615090 0.941240 -0.482195
O3    O     O_R   0.384910 0.092980 0.558760 -0.496501
O4    O     O_R   0.615090 0.907020 0.441240 -0.482182
O5    O     O_R   0.092980 0.615090 0.058760 -0.496498
O6    O     O_R   0.907020 0.384910 0.941240 -0.482161
O7    O     O_R   0.615090 0.907020 0.558760 -0.496490
O8    O     O_R   0.384910 0.092980 0.441240 -0.482168
O9    O     O_3   0.185678 0.211194 0.098448 -0.523038
O10   O     O_3   0.821664 0.799127 0.909546 -0.515340
O11   O     O_3   0.788799 0.185680 0.598450 -0.523037
O12   O     O_R   0.092980 0.384910 0.058760 -0.478635
O13   O     O_3   0.200900 0.821642 0.409527 -0.515347
O14   O     O_3   0.814307 0.788778 0.098472 -0.523051
O15   O     O_3   0.178383 0.200925 0.909501 -0.515341
O16   O     O_3   0.211221 0.814306 0.598476 -0.523058
O17   O     O_3   0.799102 0.178358 0.409521 -0.515340
O18   O     O_3   0.179363 0.681050 0.843765 -0.536100
O19   O     O_3   0.816580 0.313018 0.152968 -0.550191
O20   O     O_3   0.681051 0.820632 0.343779 -0.536100
O21   O     O_3   0.313035 0.183416 0.652970 -0.550194
O22   O     O_3   0.820603 0.318910 0.843814 -0.536088
O23   O     O_R   0.384910 0.907020 0.441240 -0.485065
O24   O     O_3   0.183416 0.686960 0.152971 -0.550189
O25   O     O_3   0.318927 0.179381 0.343793 -0.536090
O26   O     O_3   0.686976 0.816581 0.652970 -0.550190
O27   O     O_R   0.615090 0.092980 0.558760 -0.478635
O28   O     O_R   0.092980 0.384910 0.941240 -0.485045
O29   O     O_R   0.907020 0.615090 0.058760 -0.478608
O30   O     O_R   0.615090 0.092980 0.441240 -0.485071
O31   O     O_R   0.384910 0.907020 0.558760 -0.478611
O32   O     O_R   0.907020 0.384910 0.058760 -0.496493

loop_
_geom_bond_atom_site_label_1
_geom_bond_atom_site_label_2
_ccdc_geom_bond_type
C30   O10   S    
C82   H76   S    
C70   H46   S    
Cu3   Cu4   S    
C64   H32   S    
C40   O20   S    
C61   H25   S    
C58   H15   S    
C73   C74   S    
C60   H20   S    
Cu3   O4    S    
C88   H92   S    
C14   C31   A    
Cu2   O5    S    
C24   C89   A    
C87   H88   S    
C65   H36   S    
Cu2   O12   S    
C15   C32   A    
C87   H91   S    
C46   C49   A    
C58   O10   S    
C69   O16   S    
C61   H24   S    
C38   O18   S    
C73   H53   S    
C24   H4    S    
C26   C67   A    
C65   H33   S    
C30   C48   A    
C68   H39   S    
C1    C56   S    
C7    C52   S    
C18   H67   S    
C4    O32   A    
C66   C68   S    
C44   C50   A    
C72   H51   S    
Cu4   O3    S    
C55   H9    S    
C3    C48   S    
C39   O19   S    
C8    O5    A    
C1    C2    S    
C10   C53   S    
C86   O25   S    
C80   H70   S    
C36   C53   A    
C19   C37   A    
C10   O31   A    
C7    O28   A    
C27   C44   A    
C25   H5    S    
C88   H93   S    
C55   O9    S    
C17   H56   S    
C85   H84   S    
C29   O9    S    
C83   H77   S    
C2    C22   A    
C86   H87   S    
C59   H17   S    
C81   H72   S    
C74   H55   S    
C84   H81   S    
C62   H26   S    
C59   H19   S    
C77   H64   S    
C20   C34   A    
C71   O17   S    
C64   O14   S    
C82   H75   S    
C5    O23   A    
C22   H3    S    
C58   H16   S    
C24   C41   A    
C37   O17   S    
C74   H58   S    
C31   C49   A    
C86   H86   S    
C84   O24   S    
C26   C43   A    
C63   H30   S    
C14   C45   A    
C66   H38   S    
C77   C79   S    
C21   C23   A    
C69   H43   S    
C28   C45   A    
C76   H63   S    
C57   H11   S    
C73   H54   S    
Cu3   O23   S    
C25   C78   A    
C12   C89   S    
C44   O25   S    
C19   H78   S    
C10   O3    A    
C79   H69   S    
Cu1   Cu2   S    
C66   O15   S    
C27   C56   A    
C13   H12   S    
C35   O15   S    
C58   C59   S    
Cu1   O1    S    
C55   H10   S    
C76   H62   S    
C82   O22   S    
C12   C78   S    
C60   C61   S    
Cu4   O8    S    
Cu3   O7    S    
C75   C76   S    
C55   C57   S    
C62   C63   S    
C65   H35   S    
C3    O1    A    
C16   C33   A    
C6    O27   A    
C20   C38   A    
C75   H59   S    
C4    O12   A    
C21   C39   A    
C85   H85   S    
C14   H23   S    
C22   C40   A    
C61   H22   S    
Cu4   O30   S    
C59   H18   S    
C81   H73   S    
C16   C67   A    
C36   O16   S    
C84   C85   S    
Cu1   O32   S    
Cu2   O28   S    
C8    C51   S    
C41   C53   A    
C77   O20   S    
C77   H65   S    
C20   H89   S    
C37   C54   A    
C33   O14   S    
C9    O30   A    
C57   H13   S    
C73   O18   S    
C29   C47   A    
C70   H44   S    
C69   H42   S    
C40   C54   A    
C15   H34   S    
C83   H79   S    
C5    C50   S    
C16   H45   S    
C79   H68   S    
C71   H48   S    
C80   H71   S    
C79   H66   S    
C63   H28   S    
C42   O22   S    
C86   C87   S    
C39   C47   A    
C66   H37   S    
C90   H96   S    
C11   H1    S    
C72   H50   S    
C75   O19   S    
C70   H47   S    
C88   O26   S    
C12   C34   S    
C2    C19   A    
C9    O4    A    
C18   C89   A    
C38   C48   A    
C68   H41   S    
C88   C90   S    
C80   C81   S    
C25   C42   A    
C6    O7    A    
C63   H29   S    
C80   O21   S    
C1    C23   S    
C5    O8    A    
C12   C45   S    
C21   H2    S    
C33   C51   A    
C76   H61   S    
C46   O26   S    
C28   C46   A    
C64   C65   S    
C32   O13   S    
C68   H40   S    
C71   C72   S    
C8    O29   A    
C3    O2    A    
C15   C56   A    
Cu1   O6    S    
C75   H60   S    
C43   C51   A    
C71   H49   S    
C90   H94   S    
C72   H52   S    
C11   C23   A    
C17   C78   A    
C1    C67   S    
C81   H74   S    
C27   H7    S    
C32   C50   A    
Cu4   O27   S    
C6    C49   S    
Cu1   O29   S    
C69   C70   S    
C74   H57   S    
C62   O13   S    
C31   O11   S    
C41   O21   S    
C28   H8    S    
C60   O11   S    
C13   C34   A    
C57   H14   S    
C13   C30   A    
C11   C29   A    
C85   H83   S    
C64   H31   S    
C83   H80   S    
C26   H6    S    
C35   C52   A    
C4    C47   S    
C60   H21   S    
Cu3   O31   S    
C9    C54   S    
C17   C35   A    
C82   C83   S    
C7    O6    A    
C84   H82   S    
C43   O24   S    
C18   C36   A    
C87   H90   S    
C62   H27   S    
Cu2   O2    S    
C42   C52   A    
C90   H95   S    
