data_str_m2_o16_o16_f0_pcu.sym.215
_audit_creation_date              2012-12-10T17:31:25-0500
_audit_creation_method            fapswitch 2.2
_symmetry_space_group_name_H-M    P1
_symmetry_Int_Tables_number       1
_space_group_crystal_system       triclinic
_cell_length_a                    19.112245
_cell_length_b                    18.50686
_cell_length_c                    12.44275
_cell_angle_alpha                 90.116284
_cell_angle_beta                  130.221806
_cell_angle_gamma                 89.720214
_cell_volume                      3360.4143809

loop_
_atom_site_label
_atom_site_type_symbol
_atom_type_description
_atom_site_fract_x
_atom_site_fract_y
_atom_site_fract_z
_atom_type_partial_charge
C1    C     C_R   0.614983 0.900456 0.656709 0.772900
C2    C     C_R   0.614602 0.099621 0.656276 0.761181
C3    C     C_R   0.114825 0.400332 0.656504 0.774445
C4    C     C_R   0.114730 0.599630 0.656380 0.764759
C5    C     C_R   0.252247 0.762491 0.057123 0.031948
C6    C     C_R   0.244414 0.220407 0.032693 0.024147
C7    C     C_R   0.750237 0.265041 0.053392 0.031323
C8    C     C_R   0.745091 0.721446 0.034565 0.023259
C9    C     C_R   0.662438 0.274827 0.014059 0.045070
C10   C     C_R   0.656278 0.710581 0.991254 0.039534
C11   C     C_R   0.165344 0.769024 0.022127 0.056647
C12   C     C_R   0.156001 0.210669 0.991358 0.041462
C13   C     C_R   0.584258 0.250434 0.882637 0.474615
C14   C     C_R   0.579187 0.741526 0.865926 0.463088
C15   C     C_R   0.087104 0.741376 0.894240 0.456652
C16   C     C_R   0.078774 0.241853 0.866481 0.464290
C17   C     C_R   0.594166 0.212767 0.796458 -0.272631
C18   C     C_R   0.589994 0.782365 0.783881 -0.260861
C19   C     C_R   0.096074 0.710639 0.801412 -0.272898
C20   C     C_R   0.089221 0.282416 0.783690 -0.259437
C21   C     C_R   0.322664 0.807535 0.162460 -0.122746
C22   C     C_R   0.320250 0.194381 0.165559 -0.134413
C23   C     C_R   0.821702 0.308345 0.161548 -0.125034
C24   C     C_R   0.820540 0.695448 0.167827 -0.126933
C25   C     C_R   0.231778 0.846501 0.224437 -0.206043
C26   C     C_R   0.222075 0.136604 0.198038 -0.208368
C27   C     C_R   0.729032 0.350801 0.218189 -0.204264
C28   C     C_R   0.721600 0.635386 0.196307 -0.211544
C29   C     C_R   0.688823 0.149116 0.758202 -0.071018
C30   C     C_R   0.687886 0.848707 0.755424 -0.064964
C31   C     C_R   0.189171 0.649236 0.758226 -0.069724
C32   C     C_R   0.187238 0.348105 0.754441 -0.056235
C33   C     C_R   0.685761 0.010004 0.291406 -0.237970
C34   C     C_R   0.185852 0.509316 0.291470 -0.246573
C35   C     C_R   0.342763 0.005401 0.622460 0.093442
C36   C     C_R   0.842837 0.506136 0.622687 0.075946
C37   C     C_R   0.308049 0.016362 0.690235 -0.271608
C38   C     C_R   0.808376 0.517604 0.690753 -0.287899
C39   C     C_R   0.384534 0.099078 0.342949 0.807160
C40   C     C_R   0.384426 0.901257 0.342529 0.816120
C41   C     C_R   0.884494 0.599032 0.342954 0.809743
C42   C     C_R   0.884206 0.401535 0.342216 0.815313
C43   C     C_R   0.367457 0.018740 0.836380 -0.124961
C44   C     C_R   0.867889 0.519520 0.836941 -0.155842
C45   C     C_R   0.462659 0.005674 0.918813 -0.024234
C46   C     C_R   0.962779 0.505278 0.918970 -0.041328
C47   C     C_R   0.495310 0.000811 0.843573 0.218113
C48   C     C_R   0.995342 0.500216 0.843602 0.193910
C49   C     C_R   0.526968 0.002571 0.071571 -0.158071
C50   C     C_R   0.027060 0.502196 0.071659 -0.161968
C51   C     C_R   0.622157 0.005722 0.143545 0.043395
C52   C     C_R   0.122240 0.505065 0.143609 0.040212
C53   C     C_R   0.653222 0.002487 0.067684 0.437696
C54   C     C_R   0.153257 0.501727 0.067689 0.434631
C55   C     C_R   0.590314 0.999786 0.920677 -0.270216
C56   C     C_R   0.090339 0.499155 0.920680 -0.280176
C57   C     C_R   0.501710 0.993932 0.156857 0.222922
C58   C     C_R   0.001691 0.493997 0.156856 0.229367
C59   C     C_R   0.656123 0.009055 0.368239 0.020573
C60   C     C_R   0.156188 0.508664 0.368283 0.015990
C61   C     C_R   0.653864 0.314342 0.101704 -0.159109
C62   C     C_R   0.645969 0.668786 0.074630 -0.159017
C63   C     C_R   0.157474 0.807740 0.111267 -0.144890
C64   C     C_R   0.146263 0.169898 0.076380 -0.157270
C65   C     C_R   0.312996 0.849306 0.245476 -0.034638
C66   C     C_R   0.308951 0.147266 0.240253 -0.040449
C67   C     C_R   0.811744 0.350796 0.243491 -0.031263
C68   C     C_R   0.808797 0.647137 0.240420 -0.038994
C69   C     C_R   0.773916 0.139215 0.793109 -0.171337
C70   C     C_R   0.773544 0.858947 0.793054 -0.184027
C71   C     C_R   0.273790 0.640151 0.791194 -0.173993
C72   C     C_R   0.272888 0.357827 0.791749 -0.201003
C73   C     C_R   0.353404 0.663129 0.920324 -0.231470
C74   C     C_R   0.346567 0.315020 0.894483 -0.220814
C75   C     C_R   0.853083 0.162124 0.922691 -0.227632
C76   C     C_R   0.847885 0.817340 0.897829 -0.241767
C77   C     C_R   0.349928 0.695524 0.018524 0.015508
C78   C     C_R   0.337444 0.262380 0.964835 0.014210
C79   C     C_R   0.848550 0.195279 0.019200 0.013259
C80   C     C_R   0.839355 0.765282 0.969913 0.018474
C81   C     C_R   0.761432 0.218767 0.973826 0.074335
C82   C     C_R   0.755402 0.760360 0.946387 0.059713
C83   C     C_R   0.263080 0.717462 0.975824 0.073549
C84   C     C_R   0.254154 0.258660 0.943380 0.054866
C85   C     C_R   0.681163 0.193882 0.842042 -0.009607
C86   C     C_R   0.677325 0.797310 0.828002 -0.030809
C87   C     C_R   0.182507 0.692895 0.844273 -0.005086
C88   C     C_R   0.176381 0.296562 0.826508 -0.027960
Cu1   Cu    Cu3+1 0.526340 0.000000 0.421010 0.982726
Cu2   Cu    Cu3+1 0.026340 0.500000 0.421010 0.981929
Cu3   Cu    Cu3+1 0.473640 0.000000 0.578990 0.927808
Cu4   Cu    Cu3+1 0.973640 0.500000 0.578990 0.911489
H1    H     H_    0.223284 0.878728 0.288133 0.144868
H2    H     H_    0.212352 0.100292 0.255583 0.143959
H3    H     H_    0.720250 0.383854 0.280726 0.143651
H4    H     H_    0.711555 0.598176 0.252372 0.141302
H5    H     H_    0.758595 0.014179 0.348291 0.197884
H6    H     H_    0.258709 0.513233 0.348370 0.193760
H7    H     H_    0.296806 0.005124 0.508680 0.120103
H8    H     H_    0.796818 0.506302 0.508907 0.124628
H9    H     H_    0.336639 0.034990 0.880172 0.221689
H10   H     H_    0.837763 0.536819 0.881360 0.223890
H11   H     H_    0.235315 0.025323 0.629472 0.160448
H12   H     H_    0.735843 0.527509 0.630209 0.162773
H13   H     H_    0.618985 0.999178 0.870345 0.218717
H14   H     H_    0.119030 0.498872 0.870375 0.222931
H15   H     H_    0.588337 0.320068 0.076762 0.154959
H16   H     H_    0.579113 0.659196 0.042999 0.163056
H17   H     H_    0.092956 0.810976 0.090059 0.155186
H18   H     H_    0.079686 0.161184 0.046287 0.163963
H19   H     H_    0.383791 0.814037 0.175338 0.133254
H20   H     H_    0.389421 0.208514 0.212696 0.129572
H21   H     H_    0.884066 0.313220 0.177460 0.131858
H22   H     H_    0.889797 0.710521 0.217178 0.133185
H23   H     H_    0.780472 0.106169 0.728007 0.159036
H24   H     H_    0.783201 0.899618 0.741162 0.156015
H25   H     H_    0.279762 0.607824 0.724729 0.157887
H26   H     H_    0.282991 0.398898 0.740995 0.141715
H27   H     H_    0.418585 0.648346 0.949318 0.152965
H28   H     H_    0.410902 0.321601 0.916422 0.172014
H29   H     H_    0.918566 0.146468 0.953552 0.152531
H30   H     H_    0.912108 0.824225 0.919272 0.182889
H31   H     H_    0.532141 0.198649 0.692290 0.174162
H32   H     H_    0.528345 0.801906 0.684050 0.187955
H33   H     H_    0.034189 0.700011 0.694893 0.167111
H34   H     H_    0.027496 0.302417 0.684493 0.188493
H35   H     H_    0.705412 0.013598 0.481707 0.131192
H36   H     H_    0.205501 0.513104 0.481768 0.127049
N1    N     N_R   0.566260 0.000000 0.302220 -0.201041
N2    N     N_R   0.066260 0.500000 0.302220 -0.199300
N3    N     N_R   0.434410 0.000000 0.697680 -0.194910
N4    N     N_R   0.934410 0.500000 0.697680 -0.198017
O1    O     O_R   0.608610 0.924520 0.551740 -0.580462
O2    O     O_R   0.608610 0.075480 0.551740 -0.590410
O3    O     O_R   0.108610 0.424520 0.551740 -0.581246
O4    O     O_R   0.108610 0.575480 0.551740 -0.588091
O5    O     O_R   0.564110 0.924510 0.685150 -0.609317
O6    O     O_R   0.564110 0.075490 0.685150 -0.582528
O7    O     O_R   0.064110 0.424510 0.685150 -0.606088
O8    O     O_R   0.064110 0.575490 0.685150 -0.593501
O9    O     O_R   0.435880 0.075470 0.314850 -0.495756
O10   O     O_R   0.435880 0.924530 0.314850 -0.571740
O11   O     O_R   0.935880 0.575470 0.314850 -0.492173
O12   O     O_R   0.935880 0.424530 0.314850 -0.573347
O13   O     O_R   0.391380 0.075460 0.448260 -0.600739
O14   O     O_R   0.391380 0.924540 0.448260 -0.597777
O15   O     O_R   0.891380 0.575460 0.448260 -0.609808
O16   O     O_R   0.891380 0.424540 0.448260 -0.593713
O17   O     O_3   0.746255 0.004992 0.137989 -0.555835
C89   C     C_3   0.775560 0.936577 0.129805 -0.312235
H37   H     H_    0.750457 0.926122 0.022065 0.165783
H38   H     H_    0.754019 0.892288 0.163373 0.148510
H39   H     H_    0.851519 0.936012 0.202129 0.198535
O18   O     O_3   0.246268 0.504086 0.137896 -0.558036
C90   C     C_3   0.275441 0.435437 0.130424 -0.318368
H40   H     H_    0.249695 0.424283 0.022518 0.167547
H41   H     H_    0.254420 0.391574 0.165526 0.147887
H42   H     H_    0.351370 0.434945 0.201906 0.195179
C91   C     C_2   0.410395 0.964786 0.090949 0.420640
H43   H     H_    0.390969 0.912682 0.038839 -0.011914
O19   O     O_2   0.353893 0.000093 0.085017 -0.497895
C92   C     C_2   0.910129 0.465338 0.090817 0.421065
H44   H     H_    0.890371 0.413192 0.038802 -0.008200
O20   O     O_2   0.853842 0.501059 0.084769 -0.503630
O21   O     O_3   0.497391 0.264760 0.835899 -0.586105
C93   C     C_3   0.459647 0.323222 0.740321 -0.367030
H45   H     H_    0.453108 0.310632 0.646678 0.165160
H46   H     H_    0.500796 0.373142 0.792909 0.167543
H47   H     H_    0.389508 0.334196 0.701067 0.195579
O22   O     O_3   0.492293 0.729911 0.820776 -0.580853
C94   C     C_3   0.462140 0.793647 0.842749 -0.349914
H48   H     H_    0.394837 0.783061 0.814055 0.202034
H49   H     H_    0.452030 0.838506 0.774499 0.184059
H50   H     H_    0.510369 0.810316 0.955370 0.144474
O23   O     O_3   0.000859 0.754674 0.851159 -0.613774
C95   C     C_3   0.956844 0.688298 0.827431 -0.296959
H51   H     H_    0.997525 0.654737 0.924664 0.182528
H52   H     H_    0.942856 0.657871 0.738348 0.185869
H53   H     H_    0.889297 0.699287 0.797777 0.206657
O24   O     O_3   0.992142 0.230847 0.822728 -0.579883
C96   C     C_3   0.962868 0.294926 0.845307 -0.343160
H54   H     H_    0.896369 0.284518 0.819428 0.200666
H55   H     H_    0.951514 0.339266 0.775276 0.187905
H56   H     H_    0.012272 0.312212 0.957500 0.144114
C97   C     C_2   0.436809 0.693587 0.166497 0.314174
H57   H     H_    0.501878 0.698177 0.189315 0.055660
O25   O     O_2   0.436926 0.682266 0.263271 -0.513680
C98   C     C_2   0.411654 0.207517 0.040266 0.350010
H58   H     H_    0.481143 0.222499 0.087752 0.074188
O26   O     O_2   0.395111 0.144303 0.042515 -0.518308
C99   C     C_2   0.934222 0.192128 0.168152 0.319487
H59   H     H_    0.000150 0.195744 0.193495 0.054480
O27   O     O_2   0.932261 0.180857 0.262850 -0.508727
C100  C     C_2   0.915314 0.712085 0.050065 0.288081
H60   H     H_    0.985127 0.729075 0.103535 0.073838
O28   O     O_2   0.900114 0.648112 0.049440 -0.522461

loop_
_geom_bond_atom_site_label_1
_geom_bond_atom_site_label_2
_ccdc_geom_bond_type
C26   H2    S    
C53   O17   S    
C94   H48   S    
C24   H22   S    
O21   C93   S    
C73   H27   S    
C40   O10   A    
C90   H41   S    
C77   C97   S    
C14   C18   A    
C53   C55   A    
C27   H3    S    
C34   C60   A    
C48   C56   A    
C14   O22   S    
C42   O16   A    
C99   O27   D    
Cu1   N1    S    
C32   C72   A    
C96   H54   S    
C15   C19   A    
C94   H49   S    
C18   C86   A    
C55   H13   S    
C2    C29   S    
C9    C61   A    
C57   N1    A    
C28   C68   A    
C41   O11   A    
C19   C87   A    
C36   N4    A    
C58   C92   S    
C6    C12   A    
C12   C64   A    
C1    O1    A    
C97   O25   D    
Cu3   N3    S    
O22   C94   S    
C77   C83   A    
C59   H35   S    
Cu1   O10   S    
C6    C22   A    
C49   C57   A    
C98   O26   D    
C25   C63   A    
C23   C67   A    
C9    C13   A    
C22   C66   A    
C38   H12   S    
C27   C61   A    
C21   H19   S    
Cu3   O5    S    
C11   C15   A    
Cu1   O9    S    
C95   H53   S    
C59   N1    A    
C12   C16   A    
C44   C46   A    
C49   C51   A    
C89   H39   S    
C50   C52   A    
C80   C100  S    
C91   O19   D    
C30   C86   A    
C29   C85   A    
Cu2   O11   S    
C4    O4    A    
C21   C65   A    
C31   C71   A    
C100  H60   S    
C57   C91   S    
C3    O7    A    
C33   C59   A    
C79   C99   S    
C90   H42   S    
C93   H46   S    
C10   C62   A    
C35   H7    S    
C64   H18   S    
C30   C70   A    
C52   C54   A    
C41   C68   S    
C29   C69   A    
C45   C47   A    
C94   H50   S    
C54   C56   A    
C6    C84   A    
C28   C62   A    
C71   H25   S    
C99   H59   S    
C2    O6    A    
C39   O9    A    
C60   H36   S    
Cu1   O1    S    
C72   C74   A    
C10   C14   A    
C96   H55   S    
C60   N2    A    
C71   C73   A    
C44   H10   S    
C70   H24   S    
C82   C86   A    
C19   H33   S    
C47   N3    A    
C98   H58   S    
C51   C53   A    
C5    C21   A    
C26   C66   A    
C63   H17   S    
C43   H9    S    
C38   C44   A    
O23   C95   S    
C89   H38   S    
C4    O8    A    
Cu3   O6    S    
Cu2   O4    S    
Cu2   Cu4   S    
C91   H43   S    
C41   O15   A    
C45   C49   A    
C25   H1    S    
C16   C20   A    
C39   O13   A    
C100  O28   D    
C50   C58   A    
C25   C65   A    
C36   H8    S    
C2    O2    A    
C13   O21   S    
C23   H21   S    
C43   C45   A    
C56   H14   S    
O18   C90   S    
C80   C82   A    
C95   H51   S    
C7    C81   A    
C22   H20   S    
C40   C65   S    
C70   C76   A    
C42   C67   S    
C39   C66   S    
C17   C85   A    
C37   C43   A    
C31   C87   A    
C78   C98   S    
Cu4   O8    S    
C35   N3    A    
Cu3   O13   S    
C1    O5    A    
O24   C96   S    
C35   C37   A    
C47   C55   A    
C92   H44   S    
C96   H56   S    
C7    C9    A    
C69   H23   S    
Cu1   O2    S    
Cu4   N4    S    
C75   H29   S    
C34   C52   A    
C76   C80   A    
C83   C87   A    
C54   O18   S    
C37   H11   S    
C79   C81   A    
C5    C83   A    
C5    C11   A    
C40   O14   A    
C26   C64   A    
C33   C51   A    
C74   H28   S    
C46   C50   A    
C11   C63   A    
C15   O23   S    
C28   H4    S    
C76   H30   S    
C34   H6    S    
C36   C38   A    
C92   O20   D    
O17   C89   S    
C42   O12   A    
Cu4   O16   S    
C97   H57   S    
C93   H45   S    
C84   C88   A    
C58   N2    A    
C7    C23   A    
C20   C88   A    
C95   H52   S    
C1    C30   S    
C8    C24   A    
C20   H34   S    
C69   C75   A    
C3    O3    A    
C3    C32   S    
C61   H15   S    
C81   C85   A    
C4    C31   S    
C27   C67   A    
C24   C68   A    
C13   C17   A    
Cu2   N2    S    
C46   C48   A    
C78   C84   A    
C8    C82   A    
C62   H16   S    
C93   H47   S    
C8    C10   A    
Cu1   Cu3   S    
C74   C78   A    
C72   H26   S    
C90   H40   S    
C73   C77   A    
C89   H37   S    
C48   N4    A    
C33   H5    S    
C17   H31   S    
Cu4   O7    S    
C75   C79   A    
Cu3   O14   S    
Cu2   O12   S    
Cu2   O3    S    
C16   O24   S    
C18   H32   S    
Cu4   O15   S    
C32   C88   A    
