data_str_m3_o10_o14_f0_pcu.sym.21
_audit_creation_date              2013-03-05T15:40:26-0500
_audit_creation_method            fapswitch 2.2
_symmetry_space_group_name_H-M    P1
_symmetry_Int_Tables_number       1
_space_group_crystal_system       triclinic
_cell_length_a                    7.787024
_cell_length_b                    8.562991
_cell_length_c                    10.61699
_cell_angle_alpha                 91.309215
_cell_angle_beta                  85.518796
_cell_angle_gamma                 93.72075
_cell_volume                      704.178905885

loop_
_atom_site_label
_atom_site_type_symbol
_atom_site_description
_atom_site_fract_x
_atom_site_fract_y
_atom_site_fract_z
_atom_type_partial_charge
O1    O     O_R   0.389250 0.738570 0.508280 -0.624324
O2    O     O_R   0.678390 0.711630 0.486650 -0.624765
C1    C     C_R   0.545754 0.794657 0.495924 0.928813
O3    O     O_R   0.355400 0.513470 0.694050 -0.588923
O4    O     O_R   0.644540 0.486530 0.672420 -0.626490
C2    C     C_R   0.502594 0.506750 0.739278 0.887957
Zn1   Zn    Zn3+2 0.306930 0.517990 0.514440 0.980005
Zn2   Zn    Zn3+2 0.693070 0.482010 0.485560 0.963594
O5    O     O_R   0.321610 0.288370 0.513350 -0.605194
O6    O     O_R   0.610750 0.261430 0.491720 -0.621055
O7    O     O_R   0.355460 0.513470 0.327580 -0.630016
O8    O     O_R   0.644600 0.486530 0.305950 -0.612771
C3    C     C_R   0.454235 0.205284 0.501386 0.992789
C4    C     C_R   0.499117 0.502951 0.260648 0.848297
H1    H     H_    0.617685 0.293121 0.874508 0.166537
C5    C     C_R   0.389979 0.781858 0.881585 -0.264658
H2    H     H_    0.394583 0.787519 0.779786 0.180511
C6    C     C_R   0.330657 0.910212 0.953589 0.372081
C7    C     C_R   0.331179 0.907043 0.085288 -0.225782
H3    H     H_    0.288936 0.005053 0.143296 0.177488
C8    C     C_R   0.386883 0.777836 0.144079 -0.239007
H4    H     H_    0.387611 0.783068 0.245786 0.169316
C9    C     C_R   0.442025 0.646650 0.072478 0.111734
C10   C     C_R   0.445083 0.648988 0.940512 0.035613
C11   C     C_R   0.507371 0.518437 0.871536 -0.071462
C12   C     C_R   0.570157 0.392066 0.929253 -0.107631
H5    H     H_    0.610710 0.288926 0.103017 0.152471
C13   C     C_R   0.565351 0.389325 0.057968 -0.173939
C14   C     C_R   0.499177 0.513596 0.128517 -0.073786
C15   C     C_2   0.569861 0.958163 0.492574 -0.380025
H6    H     H_    0.701707 0.009398 0.486703 0.188004
C16   C     C_2   0.430286 0.041586 0.498989 -0.315807
H7    H     H_    0.298484 0.990250 0.504214 0.195765
N1    N     N_2   0.950330 0.457950 0.466250 -0.166331
H8    H     H_    0.013329 0.381734 0.405183 0.197451
N2    N     N_2   0.049670 0.542050 0.533750 -0.163551
H9    H     H_    0.986700 0.618292 0.594813 0.202380
N3    N     N_R   0.270433 0.043220 0.893440 0.198029
O9    O     O_R   0.264827 0.045185 0.771349 -0.425852
O10   O     O_R   0.214517 0.161269 0.960599 -0.407467

loop_
_geom_bond_atom_site_label_1
_geom_bond_atom_site_label_2
_geom_bond_distance
_ccdc_geom_bond_type
O4    Zn2   1.990318 S    
C15   C16   1.335367 D    
C9    C10   1.400005 A    
C1    C15   1.401391 S    
Zn1   N2    2.021164 S    
C3    C16   1.401963 S    
C12   C13   1.364854 A    
C7    H3    1.082779 S    
Zn2   O8    1.974343 S    
C16   H7    1.087823 S    
O2    C1    1.287689 A    
C6    N3    1.440244 S    
C5    C10   1.416995 A    
C5    C6    1.406461 A    
Zn2   N1    2.021164 S    
C8    H4    1.080168 S    
Zn1   O7    1.990318 S    
O4    C2    1.285390 A    
O3    Zn1   1.974343 S    
C9    C14   1.410073 A    
O3    C2    1.281993 A    
C13   C14   1.390456 A    
N3    O10   1.302111 A    
O8    C4    1.281960 A    
N1    H8    1.029307 S    
N1    N2    1.273318 D    
C8    C9    1.413058 A    
C15   H6    1.087771 S    
O7    C4    1.284688 A    
C2    C11   1.408681 S    
C4    C14   1.407834 S    
N3    O9    1.300904 A    
C10   C11   1.413762 A    
Zn2   O6    1.955710 S    
C6    C7    1.399460 A    
H5    C13   1.084994 S    
Zn1   O5    1.976666 S    
O5    C3    1.288267 A    
N2    H9    1.029316 S    
H1    C12   1.085008 S    
C7    C8    1.392132 A    
C11   C12   1.389711 A    
O1    Zn1   1.955710 S    
O2    Zn2   1.976666 S    
C5    H2    1.080687 S    
O1    C1    1.278682 A    
O6    C3    1.278194 A    
