data_str_m4_o14_o14_f0_acs.sym.63
_audit_creation_date              2012-12-11T14:17:55-0500
_audit_creation_method            fapswitch 2.2
_symmetry_space_group_name_H-M    P1
_symmetry_Int_Tables_number       1
_space_group_crystal_system       triclinic
_cell_length_a                    11.006382
_cell_length_b                    11.088457
_cell_length_c                    18.911532
_cell_angle_alpha                 89.549945
_cell_angle_beta                  90.050532
_cell_angle_gamma                 120.747715
_cell_volume                      1983.51284787

loop_
_atom_site_label
_atom_site_type_symbol
_atom_type_description
_atom_site_fract_x
_atom_site_fract_y
_atom_site_fract_z
_atom_type_partial_charge
C1    C     C_R   0.519784 0.460135 0.147459 0.558468
C2    C     C_R   0.930672 0.387169 0.545233 -0.183274
C3    C     C_R   0.441613 0.045966 0.541936 -0.148610
C4    C     C_R   0.594055 0.569524 0.543024 -0.132823
C5    C     C_R   0.715041 0.941524 0.551675 -0.097837
C6    C     C_R   0.053288 0.767114 0.551768 -0.084875
C7    C     C_R   0.198338 0.348459 0.545757 -0.093270
C8    C     C_R   0.125625 0.746349 0.413880 -0.079089
C9    C     C_R   0.626782 0.873121 0.412753 -0.074904
C10   C     C_R   0.253924 0.236677 0.432237 -0.092368
C11   C     C_R   0.780645 0.892231 0.507268 -0.156284
C12   C     C_R   0.540191 0.061017 0.147217 0.547465
C13   C     C_R   0.107415 0.882419 0.506592 -0.150860
C14   C     C_R   0.089735 0.229711 0.514620 -0.131999
C15   C     C_R   0.143769 0.871648 0.437635 -0.115335
C16   C     C_R   0.733205 0.853012 0.438596 -0.113948
C17   C     C_R   0.116810 0.176375 0.456143 -0.146499
C18   C     C_R   0.542882 0.419795 0.362032 0.553339
C19   C     C_R   0.541774 0.060778 0.353510 0.520169
C20   C     C_R   0.934948 0.478719 0.354623 0.526257
C21   C     C_R   0.426048 0.541952 0.637554 0.546434
C22   C     C_R   0.059150 0.544540 0.646489 0.529485
C23   C     C_R   0.939804 0.480685 0.147520 0.547240
C24   C     C_R   0.484132 0.937080 0.645357 0.541187
C25   C     C_R   0.493401 0.972794 0.928929 0.004380
C26   C     C_R   0.028363 0.520025 0.929405 0.004123
C27   C     C_R   0.479848 0.508096 0.929414 0.003212
C28   C     C_R   0.005373 0.498872 0.077327 -0.003430
C29   C     C_R   0.493052 0.997598 0.076739 -0.003490
C30   C     C_R   0.502689 0.508063 0.077239 -0.005059
C31   C     C_R   0.411393 0.023228 0.959766 0.017383
C32   C     C_R   0.980529 0.388433 0.962048 0.016298
C33   C     C_R   0.613361 0.593154 0.960846 0.017393
C34   C     C_R   0.454445 0.520984 0.854511 0.543623
C35   C     C_R   0.983879 0.381085 0.036796 0.029458
C36   C     C_R   0.399553 0.021685 0.034492 0.028141
C37   C     C_R   0.621976 0.604286 0.035516 0.027939
C38   C     C_R   0.568980 0.943310 0.045061 -0.145375
C39   C     C_R   0.057466 0.628402 0.044002 -0.147132
C40   C     C_R   0.371229 0.430491 0.045133 -0.146731
C41   C     C_R   0.072265 0.639410 0.971490 -0.133810
C42   C     C_R   0.566164 0.927728 0.972635 -0.135716
C43   C     C_R   0.359529 0.433289 0.972591 -0.135780
C44   C     C_R   0.338798 0.072747 0.918157 -0.098053
C45   C     C_R   0.067124 0.545648 0.854456 0.535227
C46   C     C_R   0.931746 0.264506 0.922371 -0.098341
C47   C     C_R   0.738053 0.669345 0.919979 -0.097433
C48   C     C_R   0.964277 0.255788 0.067834 -0.085814
C49   C     C_R   0.295036 0.044853 0.063697 -0.088827
C50   C     C_R   0.749792 0.710506 0.065352 -0.088378
C51   C     C_R   0.243242 0.103305 0.948931 -0.128195
C52   C     C_R   0.903626 0.140112 0.955056 -0.129250
C53   C     C_R   0.864610 0.766880 0.951402 -0.129069
C54   C     C_R   0.921393 0.136495 0.027504 -0.136741
C55   C     C_R   0.220448 0.087633 0.021380 -0.136865
C56   C     C_R   0.479300 0.932824 0.854395 0.535560
C57   C     C_R   0.869639 0.788392 0.023766 -0.137132
C58   C     C_R   0.514925 0.987924 0.572156 0.002786
C59   C     C_R   0.999699 0.520469 0.574415 -0.005250
C60   C     C_R   0.454540 0.513519 0.565922 0.009345
C61   C     C_R   0.985081 0.491815 0.427189 0.004769
C62   C     C_R   0.504880 0.005806 0.425239 -0.002412
C63   C     C_R   0.511602 0.437597 0.435115 0.001105
C64   C     C_R   0.599637 0.954266 0.527808 0.033204
C65   C     C_R   0.037581 0.638347 0.529031 0.041400
C66   C     C_R   0.340983 0.409990 0.524752 0.018639
C67   C     C_R   0.448160 0.065765 0.469518 -0.147176
C68   C     C_R   0.055758 0.625431 0.456765 0.019951
C69   C     C_R   0.571145 0.938251 0.455073 0.023890
C70   C     C_R   0.369823 0.360441 0.463171 0.041039
C71   C     C_R   0.918701 0.372589 0.471848 -0.142175
C72   C     C_R   0.622098 0.535146 0.477151 -0.164198
Cr1   Cr    Cr6+3 0.768550 0.541320 0.250660 0.995254
Cr2   Cr    Cr6+3 0.458680 0.227230 0.250660 0.983144
Cr3   Cr    Cr6+3 0.772770 0.231450 0.250660 1.001379
Cr4   Cr    Cr6+3 0.541320 0.768550 0.749340 0.996348
Cr5   Cr    Cr6+3 0.227230 0.458680 0.749340 0.993275
Cr6   Cr    Cr6+3 0.231450 0.772770 0.749340 0.999060
H1    H     H_    0.634892 0.916969 0.076289 0.130993
H2    H     H_    0.987031 0.248803 0.122718 0.133786
H3    H     H_    0.263945 0.024421 0.118562 0.134266
H4    H     H_    0.758382 0.739587 0.120232 0.132134
H5    H     H_    0.185400 0.137462 0.916329 0.121547
H6    H     H_    0.869661 0.046783 0.923929 0.120553
H7    H     H_    0.958564 0.827097 0.919367 0.119660
H8    H     H_    0.901641 0.040852 0.053064 0.101214
H9    H     H_    0.144963 0.109130 0.045419 0.103561
H10   H     H_    0.966921 0.865040 0.048355 0.101914
H11   H     H_    0.410410 0.129830 0.448041 0.126275
H12   H     H_    0.082294 0.721070 0.073966 0.130948
H13   H     H_    0.855992 0.268231 0.450154 0.157089
H14   H     H_    0.730616 0.585069 0.458832 0.136865
H15   H     H_    0.886773 0.295521 0.579367 0.112400
H16   H     H_    0.384195 0.080492 0.574376 0.132182
H17   H     H_    0.681811 0.640352 0.576072 0.137998
H18   H     H_    0.764134 0.978330 0.602534 0.138320
H19   H     H_    0.015801 0.779291 0.602407 0.138234
H20   H     H_    0.168583 0.389853 0.586845 0.175599
H21   H     H_    0.155266 0.741606 0.359795 0.121852
H22   H     H_    0.594757 0.846327 0.358217 0.126819
H23   H     H_    0.277549 0.362872 0.076142 0.129473
H24   H     H_    0.262287 0.175404 0.391433 0.142994
H25   H     H_    0.867128 0.882493 0.526940 0.105125
H26   H     H_    0.122170 0.979950 0.526150 0.118907
H27   H     H_    0.984254 0.178136 0.536024 0.112857
H28   H     H_    0.184296 0.958328 0.401324 0.101090
H29   H     H_    0.782280 0.811775 0.404620 0.127377
H30   H     H_    0.032754 0.083909 0.430937 0.118773
H31   H     H_    0.118847 0.743443 0.948386 0.152936
H32   H     H_    0.622029 0.879591 0.950818 0.150715
H33   H     H_    0.254437 0.375479 0.950270 0.151138
H34   H     H_    0.355645 0.089482 0.861775 0.133097
H35   H     H_    0.913302 0.261679 0.866118 0.132361
H36   H     H_    0.739679 0.653811 0.863725 0.132604
O1    O     O_R   0.910960 0.572410 0.171010 -0.519709
O2    O     O_R   0.528530 0.639750 0.824400 -0.508747
O3    O     O_R   0.111220 0.471470 0.824400 -0.511521
O4    O     O_R   0.360250 0.888780 0.824400 -0.510941
O5    O     O_R   0.909330 0.572400 0.331540 -0.536343
O6    O     O_R   0.427600 0.336930 0.331540 -0.540361
O7    O     O_R   0.663070 0.090670 0.331540 -0.523319
O8    O     O_R   0.572400 0.909330 0.668460 -0.544917
O9    O     O_R   0.336930 0.427600 0.668460 -0.527096
O10   O     O_R   0.090670 0.663070 0.668460 -0.527481
O11   O     O_R   0.638240 0.528520 0.324410 -0.500236
O12   O     O_R   0.427590 0.338550 0.171010 -0.514611
O13   O     O_R   0.471480 0.109720 0.324410 -0.536218
O14   O     O_R   0.890280 0.361760 0.324410 -0.502977
O15   O     O_R   0.528520 0.638240 0.675590 -0.501764
O16   O     O_R   0.109720 0.471480 0.675590 -0.536396
O17   O     O_R   0.361760 0.890280 0.675590 -0.493107
O18   O     O_3   0.666667 0.333333 0.250630 -0.253619
O19   O     O_3   0.333333 0.666667 0.749370 -0.253792
O20   O     O_R   0.661450 0.089040 0.171010 -0.517446
O21   O     O_R   0.572410 0.910960 0.828990 -0.528391
O22   O     O_R   0.338550 0.427590 0.828990 -0.521586
O23   O     O_R   0.089040 0.661450 0.828990 -0.526165
O24   O     O_R   0.639750 0.528530 0.175600 -0.507280
O25   O     O_R   0.471470 0.111220 0.175600 -0.513988
O26   O     O_R   0.888780 0.360250 0.175600 -0.509204

loop_
_geom_bond_atom_site_label_1
_geom_bond_atom_site_label_2
_ccdc_geom_bond_type
C25   C31   A    
C47   H36   S    
C26   C32   A    
Cr1   O5    S    
C7    H20   S    
Cr2   O18   S    
C12   C29   S    
C61   C68   A    
C25   C56   S    
C56   O21   A    
Cr3   O20   S    
C39   C41   A    
Cr2   O12   S    
C27   C33   A    
C48   C54   A    
C29   C36   A    
C43   H33   S    
C62   C67   A    
C15   H28   S    
Cr6   O4    S    
C9    C16   A    
C9    C69   A    
C20   O14   A    
Cr5   O3    S    
Cr3   O26   S    
C18   O11   A    
C72   H14   S    
C18   C63   S    
Cr1   O24   S    
C19   C62   S    
C34   O2    A    
C46   C52   A    
C67   H11   S    
C10   C70   A    
Cr3   O14   S    
C11   C16   A    
C49   H3    S    
C20   C61   S    
C52   H6    S    
C14   H27   S    
C16   H29   S    
C40   H23   S    
C18   O6    A    
C7    C14   A    
C28   C35   A    
C29   C38   A    
Cr5   O22   S    
Cr6   O10   S    
C39   H12   S    
C26   C45   S    
C47   C53   A    
C61   C71   A    
Cr1   O18   S    
C60   C66   A    
C41   H31   S    
C22   O16   A    
C14   C17   A    
Cr5   O19   S    
C35   C48   A    
C24   O8    A    
Cr4   O21   S    
C52   C54   A    
C62   C69   A    
C6    C65   A    
C27   C34   S    
C58   C64   A    
C31   C44   A    
C32   C35   A    
C23   O26   A    
C10   H24   S    
C1    O12   A    
C21   C60   S    
C17   H30   S    
C22   C59   S    
C54   H8    S    
C53   C57   A    
C2    C59   A    
C11   H25   S    
C28   C39   A    
C49   C55   A    
C33   C37   A    
C30   C37   A    
C21   O9    A    
Cr6   O17   S    
C6    H19   S    
C3    C58   A    
Cr5   O9    S    
C4    H17   S    
Cr4   O15   S    
Cr2   O13   S    
C63   C70   A    
C34   O22   A    
C65   C68   A    
C4    C60   A    
C45   O23   A    
C12   O25   A    
C30   C40   A    
C23   C28   S    
C13   H26   S    
C21   O15   A    
C44   H34   S    
C44   C51   A    
C8    C68   A    
C9    H22   S    
C13   C15   A    
C5    C11   A    
C33   C47   A    
C2    C71   A    
Cr6   O23   S    
C51   H5    S    
C4    C72   A    
C5    H18   S    
Cr2   O6    S    
Cr3   O18   S    
C50   H4    S    
C45   O3    A    
C19   O7    A    
C46   H35   S    
Cr3   O7    S    
C50   C57   A    
C32   C46   A    
C8    H21   S    
C2    H15   S    
C3    C67   A    
C25   C42   A    
C53   H7    S    
Cr4   O19   S    
C22   O10   A    
C8    C15   A    
C64   C69   A    
Cr2   O25   S    
Cr1   O1    S    
C57   H10   S    
Cr4   O8    S    
C40   C43   A    
C48   H2    S    
C42   H32   S    
C59   C65   A    
C7    C66   A    
C56   O4    A    
C37   C50   A    
C24   O17   A    
C66   C70   A    
Cr1   O11   S    
C19   O13   A    
C1    C30   S    
Cr4   O2    S    
C3    H16   S    
C51   C55   A    
Cr5   O16   S    
C55   H9    S    
Cr6   O19   S    
C36   C49   A    
C23   O1    A    
C38   C42   A    
C27   C43   A    
C71   H13   S    
C63   C72   A    
C5    C64   A    
C24   C58   S    
C38   H1    S    
C31   C36   A    
C12   O20   A    
C10   C17   A    
C20   O5    A    
C1    O24   A    
C26   C41   A    
C6    C13   A    
