data_str_m2_o4_o9_f0_pcu.sym.203
_audit_creation_date              2013-03-05T16:34:12-0500
_audit_creation_method            fapswitch 2.2
_symmetry_space_group_name_H-M    P1
_symmetry_Int_Tables_number       1
_space_group_crystal_system       triclinic
_cell_length_a                    10.882169
_cell_length_b                    10.854378
_cell_length_c                    9.585759
_cell_angle_alpha                 91.029636
_cell_angle_beta                  90.99053
_cell_angle_gamma                 91.744691
_cell_volume                      1131.37412649

loop_
_atom_site_label
_atom_site_type_symbol
_atom_site_description
_atom_site_fract_x
_atom_site_fract_y
_atom_site_fract_z
_atom_type_partial_charge
O1    O     O_R   0.500000 0.319640 0.618810 -0.588446
O2    O     O_R   0.500010 0.319680 0.381230 -0.596224
C1    C     C_R   0.494014 0.262472 0.498560 0.794883
O3    O     O_R   0.319640 0.499990 0.618790 -0.556730
O4    O     O_R   0.319650 0.500030 0.381210 -0.568396
C2    C     C_R   0.262325 0.499268 0.499108 0.809263
Cu1   Cu    Cu3+1 0.499990 0.499980 0.640670 0.982550
Cu2   Cu    Cu3+1 0.500010 0.500020 0.359330 0.954844
O5    O     O_R   0.499990 0.680320 0.618770 -0.573912
O6    O     O_R   0.500000 0.680360 0.381190 -0.587460
O7    O     O_R   0.680350 0.499970 0.618790 -0.576996
O8    O     O_R   0.680360 0.500010 0.381210 -0.588561
C3    C     C_R   0.495368 0.737793 0.500289 0.813393
C4    C     C_R   0.737526 0.492821 0.501556 0.800298
C5    C     C_R   0.165019 0.317882 0.037896 -0.194472
H1    H     H_    0.169617 0.349274 0.931690 0.216586
C6    C     C_R   0.127526 0.399259 0.142499 -0.148542
H2    H     H_    0.104703 0.492433 0.116116 0.180359
C7    C     C_R   0.116737 0.359554 0.279938 0.115538
C8    C     C_R   0.150582 0.239889 0.313436 -0.211286
H3    H     H_    0.143069 0.208042 0.419514 0.163298
C9    C     C_R   0.190346 0.159212 0.209511 -0.212675
H4    H     H_    0.213981 0.066673 0.237736 0.190787
C10   C     C_R   0.195945 0.196686 0.070066 0.357319
C11   C     C_R   0.932204 0.441897 0.387650 -0.243882
H5    H     H_    0.879091 0.401844 0.301457 0.148965
C12   C     C_R   0.871733 0.482463 0.506200 -0.104117
C13   C     C_R   0.940355 0.505427 0.630642 -0.076162
C14   C     C_R   0.065803 0.535227 0.619180 -0.029836
C15   C     C_R   0.127894 0.494546 0.499168 -0.146360
C16   C     C_R   0.059965 0.437830 0.387348 0.016205
C17   C     C_R   0.905161 0.516250 0.890005 -0.143725
H6    H     H_    0.936160 0.611929 0.894108 0.146678
C18   C     C_R   0.866292 0.461284 0.012625 -0.158980
H7    H     H_    0.872199 0.514103 0.108809 0.131871
C19   C     C_R   0.822577 0.339030 0.011150 -0.088320
H8    H     H_    0.792824 0.296327 0.106395 0.125796
C20   C     C_R   0.818861 0.271010 0.886497 -0.132231
H9    H     H_    0.788686 0.175183 0.886242 0.129429
C21   C     C_R   0.855387 0.326275 0.762786 -0.087315
H10   H     H_    0.852286 0.271704 0.666995 0.114646
C22   C     C_R   0.897291 0.450530 0.762982 0.142894
C23   C     C_R   0.459327 0.066144 0.619089 0.220369
C24   C     C_R   0.474993 0.129395 0.495209 -0.125531
C25   C     C_R   0.470591 0.061783 0.368660 -0.226101
H11   H     H_    0.474212 0.107746 0.269395 0.172686
C26   C     C_R   0.471019 0.932947 0.370002 -0.197756
H12   H     H_    0.473311 0.883272 0.271297 0.175313
C27   C     C_R   0.477722 0.870777 0.497810 -0.115643
C28   C     C_R   0.461745 0.938990 0.620409 0.180643
C29   C     C_3   0.536638 0.941736 0.751503 -0.502521
C30   C     C_3   0.531865 0.080178 0.751673 -0.458008
H13   H     H_    0.484768 0.900532 0.838956 0.235410
H14   H     H_    0.631207 0.909843 0.733012 0.189783
H15   H     H_    0.477600 0.116632 0.839145 0.236393
H16   H     H_    0.622811 0.126640 0.736721 0.182687
C31   C     C_R   0.523434 0.606259 0.076872 0.286624
N1    N     N_R   0.500790 0.500930 0.147930 -0.192946
C32   C     C_R   0.464113 0.398180 0.071396 -0.075068
H17   H     H_    0.436745 0.314839 0.123972 0.144038
C33   C     C_R   0.462666 0.398733 0.923063 -0.044872
H18   H     H_    0.431431 0.317011 0.866181 0.162380
N2    N     N_R   0.500790 0.500890 0.852020 -0.184440
C34   C     C_R   0.523842 0.606432 0.929587 0.296279
C35   C     C_3   0.640659 0.681730 0.932936 -0.539727
C36   C     C_3   0.637633 0.683654 0.090479 -0.493169
H19   H     H_    0.715814 0.631854 0.886043 0.227392
H20   H     H_    0.632253 0.774090 0.892643 0.197214
H21   H     H_    0.713931 0.635800 0.141713 0.217723
H22   H     H_    0.620431 0.776439 0.135307 0.193888
N3    N     N_R   0.232193 0.112329 0.961890 0.096434
O9    O     O_R   0.224613 0.142547 0.831279 -0.401736
O10   O     O_R   0.270147 0.003362 0.992681 -0.410203
C37   C     C_2   0.129362 0.614255 0.727532 0.843519
O11   O     O_2   0.163914 0.570392 0.837444 -0.621665
O12   O     O_R   0.154900 0.738226 0.699681 -0.750908
H23   H     H_    0.201401 0.782581 0.779249 0.360548

loop_
_geom_bond_atom_site_label_1
_geom_bond_atom_site_label_2
_geom_bond_distance
_ccdc_geom_bond_type
C11   C16   1.392414 A    
C21   H10   1.083195 S    
C7    C8    1.402097 A    
C31   C36   1.481225 S    
C7    C16   1.478572 S    
Cu1   Cu2   2.696868 S    
C26   C27   1.411128 A    
C25   H11   1.083064 S    
Cu1   O7    1.977488 S    
C37   O12   1.397113 S    
O4    C2    1.300325 A    
C19   H8    1.081437 S    
C15   C16   1.412632 A    
O7    C4    1.296154 A    
C23   C30   1.487474 S    
C36   H21   1.105300 S    
C5    H1    1.080862 S    
Cu1   O5    1.972449 S    
C18   H7    1.076854 S    
C33   N2    1.369064 A    
O5    C3    1.306516 A    
Cu2   N1    2.026795 S    
C35   H19   1.093133 S    
C4    C12   1.468161 S    
C30   H15   1.108051 S    
C21   C22   1.410463 A    
C32   H17   1.079906 S    
O3    Cu1   1.970168 S    
C6    H2    1.082024 S    
C25   C26   1.398877 A    
C20   H9    1.081119 S    
C1    C24   1.452672 S    
C32   C33   1.421820 A    
C37   O11   1.222020 D    
C29   C30   1.505144 S    
O12   H23   1.014014 S    
O3    C2    1.296099 A    
N3    O10   1.301812 A    
C14   C37   1.483241 S    
C11   H5    1.077496 S    
C29   H13   1.111695 S    
C17   C18   1.394092 A    
C23   C24   1.392729 A    
C14   C15   1.414836 A    
C26   H12   1.081606 S    
Cu2   O8    1.970169 S    
C35   H20   1.086663 S    
C28   C29   1.485254 S    
Cu1   N2    2.025665 S    
C3    C27   1.462512 S    
C5    C10   1.406008 A    
C2    C15   1.462249 S    
O8    C4    1.305859 A    
C35   C36   1.510878 S    
C9    C10   1.405964 A    
C24   C25   1.405799 A    
C31   C34   1.411953 A    
C5    C6    1.398694 A    
C13   C14   1.399957 A    
O1    Cu1   1.964918 S    
O2    Cu2   1.972451 S    
C8    C9    1.397552 A    
O6    C3    1.293397 A    
O4    Cu2   1.977487 S    
C23   C28   1.381510 A    
C11   C12   1.394205 A    
C29   H14   1.111819 S    
C17   H6    1.081962 S    
C19   C20   1.392591 A    
O2    C1    1.296131 A    
N1    C32   1.369218 A    
N3    O9    1.301817 A    
C34   C35   1.489767 S    
C20   C21   1.396943 A    
C31   N1    1.359556 A    
C36   H22   1.110282 S    
C13   C22   1.488184 S    
C6    C7    1.399246 A    
C18   C19   1.395732 A    
C33   H18   1.075884 S    
N2    C34   1.368800 A    
C8    H3    1.083477 S    
Cu2   O6    1.964918 S    
C27   C28   1.393982 A    
C12   C13   1.410646 A    
C17   C22   1.400084 A    
C9    H4    1.082299 S    
O1    C1    1.298934 A    
C30   H16   1.109713 S    
C10   N3    1.439195 S    
