data_str_m3_o14_o14_f0_pcu.sym.47
_audit_creation_date              2012-12-10T17:41:01-0500
_audit_creation_method            fapswitch 2.2
_symmetry_space_group_name_H-M    P1
_symmetry_Int_Tables_number       1
_space_group_crystal_system       triclinic
_cell_length_a                    14.745354
_cell_length_b                    15.311959
_cell_length_c                    9.977754
_cell_angle_alpha                 90.061495
_cell_angle_beta                  90.963471
_cell_angle_gamma                 89.934051
_cell_volume                      2252.45860704

loop_
_atom_site_label
_atom_site_type_symbol
_atom_type_description
_atom_site_fract_x
_atom_site_fract_y
_atom_site_fract_z
_atom_type_partial_charge
C1    C     C_R   0.382396 0.878458 0.499189 0.833339
C2    C     C_R   0.666874 0.264292 0.453519 -0.207380
C3    C     C_R   0.173434 0.241785 0.433103 -0.208156
C4    C     C_R   0.179871 0.753892 0.576274 -0.209550
C5    C     C_R   0.682876 0.811386 0.502475 -0.086292
C6    C     C_R   0.690218 0.181750 0.500935 -0.088262
C7    C     C_R   0.191941 0.319758 0.499774 -0.100798
C8    C     C_R   0.193766 0.678167 0.502479 -0.106453
C9    C     C_R   0.334710 0.000010 0.135626 -0.130930
C10   C     C_R   0.834757 0.500726 0.135970 -0.124692
C11   C     C_R   0.252953 0.000182 0.064026 -0.185998
C12   C     C_R   0.381722 0.120765 0.499517 0.847189
C13   C     C_R   0.752983 0.500903 0.064483 -0.196371
C14   C     C_R   0.252714 0.000277 0.925183 -0.191836
C15   C     C_R   0.752780 0.500730 0.925690 -0.180509
C16   C     C_R   0.334226 0.000233 0.856938 -0.131940
C17   C     C_R   0.834352 0.500584 0.857528 -0.120981
C18   C     C_R   0.418437 0.000059 0.925895 0.128868
C19   C     C_R   0.918494 0.500726 0.926168 0.119454
C20   C     C_R   0.418569 0.999998 0.070102 0.148035
C21   C     C_R   0.918603 0.500630 0.070286 0.147590
C22   C     C_R   0.577680 0.000047 0.074964 -0.114076
C23   C     C_R   0.881066 0.379774 0.499364 0.835480
C24   C     C_R   0.077671 0.499021 0.075100 -0.103537
C25   C     C_R   0.620607 0.118654 0.500525 0.846116
C26   C     C_R   0.619649 0.880427 0.500736 0.833911
C27   C     C_R   0.122158 0.617086 0.500736 0.850826
C28   C     C_R   0.121520 0.382194 0.500329 0.835827
C29   C     C_R   0.578542 0.000021 0.932760 0.230527
C30   C     C_R   0.078528 0.498198 0.932687 0.224970
C31   C     C_R   0.426669 0.285481 0.628037 -0.181997
C32   C     C_R   0.419119 0.716598 0.353834 -0.181546
C33   C     C_R   0.696443 0.574051 0.569525 -0.214885
C34   C     C_R   0.879722 0.618942 0.499102 0.856012
C35   C     C_R   0.934591 0.206575 0.585550 -0.178396
C36   C     C_R   0.444696 0.364799 0.691582 -0.147429
C37   C     C_R   0.435077 0.637515 0.288933 -0.120697
C38   C     C_R   0.609026 0.555847 0.612364 -0.152249
C39   C     C_R   0.958241 0.122005 0.624654 -0.142654
C40   C     C_R   0.546439 0.623207 0.626208 -0.111165
C41   C     C_R   0.893394 0.055978 0.621579 -0.137113
C42   C     C_R   0.380694 0.431551 0.686631 -0.127187
C43   C     C_R   0.371409 0.570782 0.294484 -0.135912
C44   C     C_R   0.570387 0.708482 0.593951 -0.186964
C45   C     C_R   0.237936 0.177600 0.431635 -0.221719
C46   C     C_R   0.804566 0.074528 0.580525 -0.195986
C47   C     C_R   0.298305 0.418878 0.619069 -0.204219
C48   C     C_R   0.291317 0.583104 0.364249 -0.192308
C49   C     C_R   0.657903 0.727564 0.546519 0.093592
C50   C     C_R   0.779146 0.160209 0.542939 0.098244
C51   C     C_R   0.276606 0.337021 0.561703 0.092442
C52   C     C_R   0.273585 0.663282 0.429726 0.094499
C53   C     C_R   0.341806 0.270408 0.563691 0.100468
C54   C     C_R   0.338326 0.730252 0.425784 0.087865
C55   C     C_R   0.722139 0.660435 0.538656 0.101705
C56   C     C_R   0.243450 0.818588 0.574260 -0.213138
C57   C     C_R   0.844806 0.226355 0.543530 0.100791
C58   C     C_R   0.320190 0.191160 0.498542 -0.088334
C59   C     C_R   0.320743 0.807836 0.497849 -0.094543
C60   C     C_R   0.809893 0.681776 0.496377 -0.087260
C61   C     C_R   0.818732 0.310004 0.498192 -0.077986
C62   C     C_3   0.670533 0.000088 0.871247 -0.839906
C63   C     C_3   0.169332 0.491407 0.868628 -0.832644
C64   C     C_R   0.832681 0.764825 0.452056 -0.202055
C65   C     C_R   0.731510 0.328389 0.451045 -0.229109
C66   C     C_R   0.768538 0.829575 0.453376 -0.225544
H1    H     H_    0.222894 0.116277 0.381497 0.139086
H2    H     H_    0.471809 0.765342 0.349506 0.163382
H3    H     H_    0.742909 0.520091 0.558107 0.111232
H4    H     H_    0.987191 0.255643 0.587001 0.146614
H5    H     H_    0.508824 0.374627 0.743707 0.130541
H6    H     H_    0.497607 0.627633 0.235615 0.137686
H7    H     H_    0.590100 0.489393 0.634787 0.134676
H8    H     H_    0.027284 0.107491 0.655943 0.136377
H9    H     H_    0.478661 0.609634 0.659802 0.134088
H10   H     H_    0.912066 0.990091 0.650116 0.137746
H11   H     H_    0.394678 0.493208 0.735443 0.128517
H12   H     H_    0.231346 0.878242 0.629932 0.140939
H13   H     H_    0.384361 0.509036 0.245404 0.136966
H14   H     H_    0.519287 0.758505 0.604074 0.149418
H15   H     H_    0.756704 0.021229 0.576134 0.121315
H16   H     H_    0.251872 0.473363 0.612719 0.137117
H17   H     H_    0.244765 0.528744 0.368292 0.142800
H18   H     H_    0.785981 0.894297 0.418198 0.144999
H19   H     H_    0.598347 0.279011 0.419239 0.148478
H20   H     H_    0.108317 0.230247 0.384080 0.156589
H21   H     H_    0.118399 0.763828 0.632571 0.156466
H22   H     H_    0.640939 0.000073 0.131752 0.159037
H23   H     H_    0.900395 0.779466 0.417753 0.147917
H24   H     H_    0.140597 0.497601 0.132583 0.150683
H25   H     H_    0.329790 0.999917 0.242035 0.197961
H26   H     H_    0.829805 0.500300 0.242369 0.196627
H27   H     H_    0.189375 0.000264 0.116770 0.145149
H28   H     H_    0.689404 0.500863 0.117254 0.144423
H29   H     H_    0.668097 0.999107 0.762305 0.290752
H30   H     H_    0.708179 0.059580 0.903095 0.222156
H31   H     H_    0.709092 0.941562 0.905104 0.216268
H32   H     H_    0.175179 0.427126 0.819329 0.262786
H33   H     H_    0.180246 0.546009 0.798955 0.258498
H34   H     H_    0.713230 0.392797 0.414449 0.136114
H35   H     H_    0.225673 0.494707 0.943814 0.196542
H36   H     H_    0.188928 0.000404 0.869783 0.140135
H37   H     H_    0.688993 0.500365 0.870452 0.151493
H38   H     H_    0.328519 0.000389 0.750443 0.197540
H39   H     H_    0.829183 0.499773 0.751367 0.199659
H40   H     H_    0.479697 0.236774 0.630070 0.159127
N1    N     N_R   0.498810 1.000000 0.142780 -0.139585
N2    N     N_R   0.998810 0.500000 0.142780 -0.139756
N3    N     N_R   0.498740 1.000000 0.857170 -0.123929
N4    N     N_R   0.998740 0.500000 0.857170 -0.122087
O1    O     O_R   0.408390 0.908380 0.614690 -0.632310
O2    O     O_R   0.591620 0.908390 0.614640 -0.626202
O3    O     O_R   0.091620 0.591610 0.614640 -0.621865
O4    O     O_R   0.091620 0.408390 0.614640 -0.620901
O5    O     O_R   0.591610 0.091610 0.385310 -0.605515
O6    O     O_R   0.591610 0.908390 0.385310 -0.615709
O7    O     O_R   0.091610 0.591610 0.385310 -0.611978
O8    O     O_R   0.091610 0.408390 0.385310 -0.615116
O9    O     O_R   0.408390 0.091620 0.614690 -0.637674
O10   O     O_R   0.908390 0.408380 0.614690 -0.635842
O11   O     O_R   0.908390 0.591620 0.614690 -0.627844
O12   O     O_R   0.408370 0.908380 0.385360 -0.639140
O13   O     O_R   0.408370 0.091620 0.385360 -0.626184
O14   O     O_R   0.908370 0.408380 0.385360 -0.627266
O15   O     O_R   0.908370 0.591620 0.385360 -0.630172
O16   O     O_R   0.591620 0.091610 0.614640 -0.628588
Zn1   Zn    Zn3+2 0.500010 1.000000 0.653130 0.925660
Zn2   Zn    Zn3+2 0.000010 0.500000 0.653130 0.929892
Zn3   Zn    Zn3+2 0.499980 1.000000 0.346870 0.931714
Zn4   Zn    Zn3+2 0.999980 0.500000 0.346870 0.935455

loop_
_geom_bond_atom_site_label_1
_geom_bond_atom_site_label_2
_ccdc_geom_bond_type
C44   C49   A    
C33   C55   A    
O16   Zn1   S    
C22   C29   A    
C62   H30   S    
C36   C42   A    
C18   N3    A    
C4    C8    A    
C2    C65   A    
C9    H25   S    
C39   C41   A    
C4    H21   S    
C30   N4    A    
C29   N3    A    
C19   C21   A    
C63   H32   S    
C3    C7    A    
C1    C59   S    
C11   C14   A    
C14   H36   S    
C6    C25   S    
C43   H13   S    
C22   N1    A    
C62   H31   S    
C56   H12   S    
C2    H19   S    
C39   H8    S    
C56   C59   A    
C1    O12   A    
O2    Zn1   S    
C63   H33   S    
O15   Zn4   S    
C16   H38   S    
O6    Zn3   S    
C35   H4    S    
C62   H29   S    
C45   H1    S    
C41   C46   A    
C24   N2    A    
C22   H22   S    
C43   C48   A    
C8    C52   A    
O12   Zn3   S    
N1    Zn3   S    
C36   H5    S    
C63   H35   S    
C32   H2    S    
C20   N1    A    
C12   C58   S    
C11   H27   S    
C10   H26   S    
C55   C60   A    
O13   Zn3   S    
C3    H20   S    
C34   C60   S    
C5    C49   A    
C2    C6    A    
C64   H23   S    
C48   H17   S    
C32   C54   A    
C52   C54   A    
C24   C30   A    
C54   C59   A    
C27   O7    A    
C10   C21   A    
C45   C58   A    
C44   H14   S    
O11   Zn2   S    
C23   O10   A    
O3    Zn2   S    
C47   C51   A    
C49   C55   A    
C3    C45   A    
C6    C50   A    
C7    C28   S    
C51   C53   A    
C64   C66   A    
C37   C43   A    
C12   O9    A    
C35   C39   A    
C25   O16   A    
O8    Zn4   S    
C17   H39   S    
C46   H15   S    
O4    Zn2   S    
C9    C20   A    
C48   C52   A    
O14   Zn4   S    
C32   C37   A    
C31   C53   A    
O7    Zn4   S    
C9    C11   A    
C28   O4    A    
C27   O3    A    
C40   C44   A    
C34   O11   A    
C13   C15   A    
O1    Zn1   S    
C31   H40   S    
C14   C16   A    
C26   O2    A    
O5    Zn3   S    
C19   N4    A    
C15   C17   A    
C29   C62   S    
C50   C57   A    
N2    Zn4   S    
C47   H16   S    
C65   H34   S    
C5    C66   A    
C10   C13   A    
C24   H24   S    
C53   C58   A    
O10   Zn2   S    
C57   C61   A    
C23   O14   A    
C33   H3    S    
C46   C50   A    
C33   C38   A    
C40   H9    S    
C60   C64   A    
C13   H28   S    
C35   C57   A    
C25   O5    A    
C7    C51   A    
C28   O8    A    
C1    O1    A    
C41   H10   S    
C38   C40   A    
C12   O13   A    
C34   O15   A    
C17   C19   A    
N3    Zn1   S    
C18   C20   A    
C42   C47   A    
C26   O6    A    
C21   N2    A    
C66   H18   S    
C5    C26   S    
C61   C65   A    
C23   C61   S    
C42   H11   S    
C16   C18   A    
C37   H6    S    
C8    C27   S    
C31   C36   A    
C15   H37   S    
C30   C63   S    
C4    C56   A    
N4    Zn2   S    
C38   H7    S    
O9    Zn1   S    
