data_str_m3_o14_o18_f0_pcu.sym.102
_audit_creation_date              2013-03-05T15:53:05-0500
_audit_creation_method            fapswitch 2.2
_symmetry_space_group_name_H-M    P1
_symmetry_Int_Tables_number       1
_space_group_crystal_system       triclinic
_cell_length_a                    9.916939
_cell_length_b                    10.721889
_cell_length_c                    15.596908
_cell_angle_alpha                 91.655564
_cell_angle_beta                  67.950412
_cell_angle_gamma                 88.379528
_cell_volume                      1535.08470852

loop_
_atom_site_label
_atom_site_type_symbol
_atom_site_description
_atom_site_fract_x
_atom_site_fract_y
_atom_site_fract_z
_atom_type_partial_charge
O1    O     O_R   0.385310 0.683220 0.500000 -0.643013
O2    O     O_R   0.614640 0.683250 0.500010 -0.633553
C1    C     C_R   0.500594 0.739932 0.494024 0.857418
O3    O     O_R   0.319840 0.499980 0.632240 -0.645278
O4    O     O_R   0.549160 0.500000 0.632250 -0.636666
C2    C     C_R   0.408777 0.501022 0.675692 0.852171
Zn1   Zn    Zn3+2 0.346880 0.499980 0.499990 0.926065
Zn2   Zn    Zn3+2 0.653120 0.500020 0.500010 0.953658
O5    O     O_R   0.385360 0.316750 0.499990 -0.617604
O6    O     O_R   0.614690 0.316780 0.500000 -0.613269
O7    O     O_R   0.450840 0.500000 0.367750 -0.616984
O8    O     O_R   0.680160 0.500020 0.367760 -0.580739
C3    C     C_R   0.497112 0.260958 0.507430 0.876047
C4    C     C_R   0.591036 0.501811 0.324494 0.886559
C5    C     C_R   0.351810 0.505776 0.776807 -0.051434
C6    C     C_R   0.644924 0.520554 0.225112 -0.169446
C7    C     C_R   0.163041 0.474994 0.925961 -0.211513
C8    C     C_R   0.207691 0.479174 0.829998 -0.207430
C9    C     C_R   0.447756 0.534103 0.820095 -0.263002
C10   C     C_R   0.404816 0.534195 0.916126 0.096335
C11   C     C_R   0.261364 0.499927 0.969201 0.161274
C12   C     C_R   0.504284 0.559333 0.959600 0.064554
C13   C     C_R   0.465281 0.532829 0.053959 0.083758
C14   C     C_R   0.319624 0.502695 0.106035 -0.229696
C15   C     C_R   0.219270 0.488033 0.064209 -0.227337
C16   C     C_R   0.641218 0.610422 0.911864 -0.228453
C17   C     C_R   0.741122 0.626925 0.953463 -0.209372
C18   C     C_R   0.708990 0.591187 0.043628 0.106713
C19   C     C_R   0.572582 0.540522 0.093511 0.101875
C20   C     C_R   0.811101 0.607009 0.085030 -0.323643
C21   C     C_R   0.777353 0.577270 0.177201 0.477441
C22   C     C_R   0.548640 0.497069 0.181084 -0.326446
H1    H     H_    0.109503 0.463343 0.105988 0.193728
H2    H     H_    0.453543 0.445424 0.217348 0.172593
H3    H     H_    0.844304 0.667286 0.914585 0.148071
H4    H     H_    0.053177 0.448748 0.965994 0.150113
H5    H     H_    0.131658 0.457302 0.797386 0.158331
H6    H     H_    0.558823 0.549455 0.776875 0.154212
H7    H     H_    0.278682 0.493193 0.179995 0.160911
H8    H     H_    0.672326 0.643098 0.843112 0.146675
H9    H     H_    0.915163 0.646138 0.046800 0.153757
H10   H     H_    0.730137 0.880801 0.450869 0.222890
C23   C     C_R   0.237707 0.899905 0.499118 -0.263952
H11   H     H_    0.241844 0.815715 0.458544 0.213555
C24   C     C_R   0.104611 0.969124 0.535857 0.377233
C25   C     C_R   0.096900 0.080537 0.586569 -0.242831
H12   H     H_    0.994532 0.132994 0.619970 0.185478
C26   C     C_R   0.223615 0.130106 0.588729 -0.220965
H13   H     H_    0.214347 0.218472 0.626302 0.174619
C27   C     C_R   0.360273 0.068457 0.540077 0.108633
C28   C     C_R   0.364407 0.944607 0.509093 0.044982
C29   C     C_R   0.497132 0.873672 0.487214 -0.140634
C30   C     C_R   0.627092 0.932937 0.472101 -0.171008
H14   H     H_    0.729225 0.105307 0.463104 0.196208
C31   C     C_R   0.626110 0.060276 0.482510 -0.146326
C32   C     C_R   0.493547 0.128371 0.516251 -0.132332
H15   H     H_    0.941866 0.361354 0.393484 0.148106
C33   C     C_R   0.784732 0.665229 0.622938 -0.104193
H16   H     H_    0.675987 0.675248 0.626015 0.193745
C34   C     C_R   0.817871 0.743844 0.684198 -0.135238
H17   H     H_    0.735330 0.808993 0.730367 0.156179
C35   C     C_R   0.956291 0.739472 0.686182 -0.194895
H18   H     H_    0.981558 0.800917 0.733914 0.148829
C36   C     C_R   0.063696 0.658821 0.625002 -0.172501
H19   H     H_    0.169178 0.663031 0.627840 0.206481
C37   C     C_R   0.034318 0.578785 0.561609 0.176403
C38   C     C_R   0.890017 0.580126 0.561088 0.203201
N1    N     N_R   0.856800 0.501200 0.500850 -0.125012
C39   C     C_R   0.965460 0.423706 0.441356 -0.101906
H20   H     H_    0.192527 0.361773 0.393174 0.148255
C40   C     C_R   0.108621 0.423983 0.441210 -0.103462
N2    N     N_R   0.142390 0.501280 0.500880 -0.125915
N3    N     N_R   0.978237 0.926766 0.521593 0.194249
O9    O     O_R   0.989811 0.836476 0.461350 -0.473921
O10   O     O_R   0.850703 0.979663 0.567831 -0.449886
O11   O     O_3   0.876318 0.599896 0.218457 -0.655114
C41   C     C_3   0.848844 0.721020 0.261742 0.133070
H21   H     H_    0.870999 0.715525 0.326310 0.206797
H22   H     H_    0.733172 0.756230 0.283224 0.097708
C42   C     C_3   0.951753 0.813761 0.199170 -0.370883
H23   H     H_    0.066286 0.777576 0.178354 0.244725
H24   H     H_    0.927687 0.824720 0.135747 0.214082
C43   C     C_3   0.934787 0.941892 0.248164 -0.937273
H25   H     H_    0.821092 0.980024 0.269161 0.260896
H26   H     H_    0.009015 0.007174 0.200479 0.265666
H27   H     H_    0.963087 0.935388 0.310356 0.298877

loop_
_geom_bond_atom_site_label_1
_geom_bond_atom_site_label_2
_geom_bond_distance
_ccdc_geom_bond_type
C5    C8    1.399550 A    
C31   C32   1.393668 A    
N3    O9    1.301299 A    
C9    C10   1.394889 A    
C16   H8    1.071085 S    
C41   H21   1.111202 S    
C6    C21   1.409800 A    
C5    C9    1.392920 A    
C16   C17   1.385556 A    
C13   C19   1.419345 A    
C24   N3    1.435996 S    
C18   C19   1.416369 A    
C8    H5    1.083199 S    
C19   C22   1.392331 A    
C42   C43   1.526208 S    
H10   C30   1.081344 S    
O4    C2    1.299159 A    
O7    C4    1.298668 A    
C33   C34   1.391518 A    
C14   H7    1.078596 S    
C34   C35   1.384115 A    
C39   C40   1.418954 A    
O5    C3    1.289408 A    
C35   C36   1.389217 A    
C2    C5    1.460734 S    
H14   C31   1.083686 S    
C37   N2    1.370518 A    
N1    C39   1.366246 A    
C13   C14   1.418190 A    
C20   H9    1.083265 S    
H20   C40   1.081784 S    
C7    H4    1.082968 S    
C3    C32   1.432333 S    
C41   H22   1.118150 S    
C37   C38   1.433759 A    
N3    O10   1.300892 A    
O3    Zn1   1.977705 S    
C27   C28   1.394103 A    
C30   C31   1.369590 A    
C25   C26   1.389691 A    
C38   N1    1.381866 A    
O11   C41   1.416969 S    
C42   H24   1.109805 S    
Zn1   N2    2.022394 S    
C17   H3    1.084596 S    
C33   H16   1.063535 S    
C24   C25   1.397583 A    
C27   C32   1.410893 A    
C28   C29   1.420735 A    
C34   H17   1.082833 S    
O1    C1    1.283766 A    
C36   C37   1.407216 A    
Zn1   O7    1.928844 S    
C23   H11   1.078136 S    
C35   H18   1.082647 S    
C9    H6    1.074194 S    
C43   H25   1.111144 S    
Zn2   O8    1.977702 S    
C7    C8    1.394880 A    
C14   C15   1.389643 A    
C23   C24   1.404799 A    
O3    C2    1.298550 A    
C26   H13   1.082628 S    
C43   H26   1.110454 S    
C10   C12   1.418483 A    
Zn2   N1    2.025231 S    
C4    C6    1.459708 S    
C29   C30   1.395437 A    
C41   C42   1.532437 S    
Zn1   O5    1.990668 S    
C11   C15   1.391344 A    
C25   H12   1.082591 S    
O1    Zn1   2.011861 S    
O2    Zn2   1.990669 S    
O8    C4    1.297889 A    
C42   H23   1.112169 S    
O6    C3    1.293545 A    
O4    Zn2   1.928844 S    
C1    C29   1.441331 S    
C6    C22   1.393767 A    
C36   H19   1.065625 S    
C18   C20   1.401975 A    
O2    C1    1.304178 A    
C40   N2    1.367583 A    
C23   C28   1.417453 A    
C21   O11   1.383727 S    
C20   C21   1.396998 A    
C26   C27   1.413369 A    
C7    C11   1.405369 A    
C33   C38   1.411504 A    
C43   H27   1.109840 S    
C10   C11   1.416687 A    
Zn2   O6    2.011860 S    
C12   C16   1.415969 A    
C15   H1    1.083206 S    
C17   C18   1.388378 A    
C12   C13   1.413955 A    
H15   C39   1.081826 S    
C22   H2    1.078450 S    
