data_str_m3_o14_o16_f0_pcu.sym.20
_audit_creation_date              2012-12-10T17:42:40-0500
_audit_creation_method            fapswitch 2.2
_symmetry_space_group_name_H-M    P1
_symmetry_Int_Tables_number       1
_space_group_crystal_system       triclinic
_cell_length_a                    9.956953
_cell_length_b                    10.621542
_cell_length_c                    13.023952
_cell_angle_alpha                 91.258349
_cell_angle_beta                  71.122736
_cell_angle_gamma                 89.952893
_cell_volume                      1302.94506228

loop_
_atom_site_label
_atom_site_type_symbol
_atom_type_description
_atom_site_fract_x
_atom_site_fract_y
_atom_site_fract_z
_atom_type_partial_charge
C1    C     C_R   0.501052 0.739188 0.497304 0.852703
C2    C     C_R   0.383308 0.430776 0.811951 -0.196896
C3    C     C_R   0.459354 0.864120 0.313521 -0.174518
C4    C     C_R   0.423805 0.480730 0.701454 0.883620
C5    C     C_R   0.438638 0.927737 0.227193 -0.145409
C6    C     C_R   0.439840 0.058768 0.226853 -0.099251
C7    C     C_R   0.461554 0.126587 0.312926 -0.107887
C8    C     C_R   0.480814 0.063542 0.401840 0.077181
C9    C     C_R   0.480060 0.931568 0.402059 0.095155
C10   C     C_R   0.504288 0.871409 0.490078 -0.084857
C11   C     C_R   0.533834 0.937704 0.573414 -0.207072
C12   C     C_R   0.448692 0.395959 0.973219 -0.011495
C13   C     C_R   0.534005 0.066365 0.573381 -0.195605
C14   C     C_R   0.504966 0.128215 0.489865 -0.086933
C15   C     C_R   0.800974 0.664298 0.642746 -0.101242
C16   C     C_R   0.501354 0.260716 0.497097 0.847708
C17   C     C_R   0.841007 0.742626 0.714598 -0.191230
C18   C     C_R   0.979532 0.740603 0.715669 -0.185021
C19   C     C_R   0.079161 0.660721 0.644466 -0.118080
C20   C     C_R   0.042389 0.579534 0.570983 0.038749
C21   C     C_R   0.898276 0.580321 0.570527 0.136436
C22   C     C_R   0.957233 0.423365 0.432437 -0.216858
C23   C     C_R   0.488569 0.399421 0.859570 0.083856
C24   C     C_R   0.100091 0.423412 0.432286 0.651569
C25   C     C_R   0.578172 0.497563 0.295746 0.846665
C26   C     C_R   0.804017 0.450520 0.003294 -0.120525
C27   C     C_R   0.623634 0.476593 0.178520 -0.113326
C28   C     C_R   0.239591 0.416828 0.872977 -0.314714
C29   C     C_R   0.201930 0.382163 0.981285 0.671067
C30   C     C_R   0.304271 0.377653 0.032653 -0.291628
C31   C     C_R   0.554851 0.415482 0.022108 0.104667
C32   C     C_R   0.699733 0.417031 0.957300 0.143234
C33   C     C_R   0.737611 0.386752 0.847097 -0.246387
C34   C     C_R   0.632577 0.374539 0.799002 -0.169107
C35   C     C_R   0.519504 0.446214 0.131932 -0.269192
C36   C     C_R   0.766431 0.479537 0.113999 -0.122240
F1    F     F_    0.195740 0.344438 0.362942 -0.679022
F2    F     F_    0.065627 0.356389 0.038570 -0.702414
H1    H     H_    0.848073 0.504611 0.148893 0.197334
H2    H     H_    0.423083 0.875150 0.159845 0.143295
H3    H     H_    0.425283 0.108049 0.159261 0.149904
H4    H     H_    0.465240 0.228053 0.308164 0.173046
H5    H     H_    0.553928 0.118102 0.639693 0.144423
H6    H     H_    0.693244 0.673114 0.646123 0.196947
H7    H     H_    0.763958 0.805755 0.769497 0.145416
H8    H     H_    0.010392 0.801960 0.771517 0.151868
H9    H     H_    0.268789 0.355767 0.117790 0.193575
H10   H     H_    0.553817 0.889547 0.639699 0.136543
H11   H     H_    0.927165 0.360635 0.377162 0.190850
H12   H     H_    0.183870 0.665326 0.649054 0.204192
H13   H     H_    0.848104 0.377393 0.797379 0.151101
H14   H     H_    0.913599 0.456997 0.952680 0.175747
H15   H     H_    0.409721 0.451070 0.181913 0.202065
H16   H     H_    0.157408 0.431035 0.836543 0.167211
H17   H     H_    0.666230 0.346069 0.714297 0.184666
H18   H     H_    0.461026 0.762382 0.309224 0.148137
N1    N     N_R   0.856860 0.501200 0.500990 -0.153333
N2    N     N_R   0.142450 0.501280 0.501020 -0.167832
O1    O     O_R   0.385310 0.683220 0.500000 -0.634785
O2    O     O_R   0.614640 0.683250 0.500010 -0.621529
O3    O     O_R   0.328400 0.499950 0.653610 -0.636159
O4    O     O_R   0.557730 0.499970 0.653620 -0.643877
O5    O     O_R   0.385360 0.316750 0.499990 -0.572454
O6    O     O_R   0.614690 0.316780 0.500000 -0.621759
O7    O     O_R   0.442270 0.500030 0.346380 -0.585520
O8    O     O_R   0.671600 0.500050 0.346390 -0.603393
Zn1   Zn    Zn3+2 0.346880 0.499980 0.499990 0.970724
Zn2   Zn    Zn3+2 0.653120 0.500020 0.500010 0.931894

loop_
_geom_bond_atom_site_label_1
_geom_bond_atom_site_label_2
_ccdc_geom_bond_type
C29   F2    S    
O8    Zn2   S    
C7    H4    S    
C21   N1    A    
C6    C7    A    
C3    C9    A    
C16   O5    A    
C26   H14   S    
C27   C36   A    
C35   H15   S    
C2    C28   A    
C9    C10   A    
O3    Zn1   S    
C2    C4    S    
C19   C20   A    
C19   H12   S    
O4    Zn2   S    
C3    C5    A    
C23   C34   A    
O1    Zn1   S    
C32   C33   A    
C22   N1    A    
C24   F1    S    
C34   H17   S    
N2    Zn1   S    
C13   C14   A    
C26   C32   A    
C11   C13   A    
C12   C23   A    
C11   H10   S    
C29   C30   A    
C15   C21   A    
C22   H11   S    
C24   N2    A    
C18   H8    S    
C22   C24   A    
C26   C36   A    
C28   C29   A    
C17   H7    S    
C15   H6    S    
C33   C34   A    
C31   C35   A    
C1    O1    A    
C12   C31   A    
C5    C6    A    
O5    Zn1   S    
C5    H2    S    
C33   H13   S    
C10   C11   A    
C1    C10   S    
N1    Zn2   S    
C20   N2    A    
O6    Zn2   S    
C4    O4    A    
C30   H9    S    
C13   H5    S    
C25   O7    A    
C20   C21   A    
O2    Zn2   S    
C17   C18   A    
C7    C8    A    
C3    H18   S    
C1    O2    A    
C2    C23   A    
C15   C17   A    
C28   H16   S    
C18   C19   A    
C8    C14   A    
C16   O6    A    
C27   C35   A    
C14   C16   S    
C12   C30   A    
C4    O3    A    
C6    H3    S    
C36   H1    S    
C25   O8    A    
C31   C32   A    
C8    C9    A    
O7    Zn1   S    
C25   C27   S    
