data_str_m9_o13_o18_f0_sra.sym.55
_audit_creation_date              2012-12-11T14:45:30-0500
_audit_creation_method            fapswitch 2.2
_symmetry_space_group_name_H-M    P1
_symmetry_Int_Tables_number       1
_space_group_crystal_system       triclinic
_cell_length_a                    24.740849
_cell_length_b                    7.18147
_cell_length_c                    14.45507
_cell_angle_alpha                 89.997785
_cell_angle_beta                  102.261601
_cell_angle_gamma                 90.00063
_cell_volume                      2509.7261108

loop_
_atom_site_label
_atom_site_type_symbol
_atom_type_description
_atom_site_fract_x
_atom_site_fract_y
_atom_site_fract_z
_atom_type_partial_charge
O1    O     O_R   0.319150 0.364170 0.330530 -0.540654
O2    O     O_R   0.680850 0.635830 0.669470 -0.541223
O3    O     O_R   0.180850 0.864170 0.169470 -0.540650
O4    O     O_R   0.819150 0.135830 0.830530 -0.541219
O5    O     O_R   0.210330 0.696850 0.354180 -0.538972
O6    O     O_R   0.789670 0.303150 0.645820 -0.539875
O7    O     O_R   0.289670 0.196850 0.145820 -0.538976
O8    O     O_R   0.710330 0.803150 0.854180 -0.539878
C1    C     C_R   0.196708 0.525918 0.377989 0.687358
C2    C     C_R   0.803112 0.474059 0.621756 0.686439
C3    C     C_R   0.303293 0.025924 0.122010 0.687350
C4    C     C_R   0.696887 0.974054 0.878244 0.686438
O9    O     O_R   0.320550 0.694110 0.341970 -0.531073
O10   O     O_R   0.679450 0.305890 0.658030 -0.531601
O11   O     O_R   0.179450 0.194110 0.158030 -0.531081
O12   O     O_R   0.820550 0.805890 0.841970 -0.531609
O13   O     O_R   0.291860 0.861000 0.157170 -0.537391
O14   O     O_R   0.708140 0.139000 0.842830 -0.535443
O15   O     O_R   0.208140 0.361000 0.342830 -0.537393
O16   O     O_R   0.791860 0.639000 0.657170 -0.535445
C5    C     C_R   0.341596 0.525904 0.361922 0.700366
C6    C     C_R   0.658452 0.474592 0.637821 0.697827
C7    C     C_R   0.158404 0.025906 0.138077 0.700359
C8    C     C_R   0.841548 0.974591 0.862179 0.697817
O17   O     O_3   0.240460 0.529330 0.189380 -0.372304
O18   O     O_3   0.759540 0.470670 0.810620 -0.372333
O19   O     O_3   0.259540 0.029330 0.310620 -0.372301
O20   O     O_3   0.740460 0.970670 0.689380 -0.372329
V1    V     V_3+5 0.251770 0.805510 0.261240 1.454597
V2    V     V_3+5 0.748230 0.194490 0.738760 1.453090
V3    V     V_3+5 0.248230 0.305510 0.238760 1.454588
V4    V     V_3+5 0.751770 0.694490 0.761240 1.453082
C9    C     C_R   0.103504 0.020522 0.073175 -0.237746
C10   C     C_R   0.896143 0.983433 0.928087 -0.236638
C11   C     C_R   0.396496 0.520516 0.426824 -0.237749
C12   C     C_R   0.603857 0.483437 0.571912 -0.236643
C13   C     C_R   0.955223 0.919399 0.083218 0.418805
C14   C     C_R   0.043812 0.100382 0.920961 0.417225
C15   C     C_R   0.544775 0.419340 0.416793 0.418804
C16   C     C_R   0.456190 0.600428 0.579026 0.417219
C17   C     C_R   0.902135 0.924981 0.022971 0.216245
C18   C     C_R   0.097243 0.082846 0.978942 0.220731
C19   C     C_R   0.597863 0.424932 0.477039 0.216252
C20   C     C_R   0.402759 0.582882 0.521048 0.220734
C21   C     C_R   0.942711 0.042735 0.894062 0.163722
C22   C     C_R   0.056670 0.971051 0.108887 0.179714
C23   C     C_R   0.557291 0.542776 0.605928 0.163733
C24   C     C_R   0.443328 0.471003 0.391120 0.179724
C25   C     C_R   0.996424 0.039860 0.954136 -0.081286
C26   C     C_R   0.002795 0.975362 0.049233 -0.073816
C27   C     C_R   0.503577 0.539881 0.545857 -0.081282
C28   C     C_R   0.497204 0.475331 0.450771 -0.073819
C29   C     C_R   0.666216 0.977606 0.954874 -0.084071
C30   C     C_R   0.336523 0.027599 0.048959 -0.082737
C31   C     C_R   0.833784 0.477624 0.545126 -0.084063
C32   C     C_R   0.163478 0.527578 0.451040 -0.082736
C33   C     C_R   0.659943 0.886605 0.114498 0.428493
C34   C     C_R   0.349906 0.174246 0.904024 0.429683
C35   C     C_R   0.840052 0.386669 0.385498 0.428496
C36   C     C_R   0.150099 0.674175 0.595983 0.429683
C37   C     C_R   0.690122 0.902381 0.042782 -0.256367
C38   C     C_R   0.315219 0.116963 0.963678 -0.249975
C39   C     C_R   0.809874 0.402435 0.457215 -0.256367
C40   C     C_R   0.184784 0.616911 0.536324 -0.249982
C41   C     C_R   0.611459 0.037782 0.937419 -0.190308
C42   C     C_R   0.392813 0.985054 0.073107 -0.208844
C43   C     C_R   0.888543 0.537774 0.562584 -0.190323
C44   C     C_R   0.107187 0.485044 0.426891 -0.208848
C45   C     C_R   0.580149 0.033315 0.008895 -0.019860
C46   C     C_R   0.430535 0.061863 0.021850 -0.013392
C47   C     C_R   0.919852 0.533319 0.491107 -0.019863
C48   C     C_R   0.069467 0.561840 0.478152 -0.013391
C49   C     C_R   0.604092 0.949646 0.097486 0.021107
C50   C     C_R   0.408267 0.156034 0.934976 0.022440
C51   C     C_R   0.895905 0.449686 0.402512 0.021119
C52   C     C_R   0.091737 0.655979 0.565030 0.022443
C53   C     C_R   0.524217 0.097827 0.991258 -0.079180
C54   C     C_R   0.489507 0.045414 0.053571 -0.076861
C55   C     C_R   0.975786 0.597810 0.508746 -0.079180
C56   C     C_R   0.010494 0.545410 0.446431 -0.076852
C57   C     C_R   0.515776 0.985323 0.146304 0.295214
C58   C     C_R   0.502065 0.218033 0.914515 0.287198
C59   C     C_R   0.984224 0.485352 0.353696 0.295221
C60   C     C_R   0.997941 0.717987 0.585494 0.287203
C61   C     C_R   0.571750 0.933183 0.166857 0.183983
C62   C     C_R   0.444819 0.239130 0.884083 0.178173
C63   C     C_R   0.928248 0.433232 0.333141 0.183968
C64   C     C_R   0.055188 0.739060 0.615927 0.178165
H1    H     H_    0.406186 0.898745 0.134715 0.166408
H2    H     H_    0.592926 0.077482 0.865560 0.165138
H3    H     H_    0.093813 0.398753 0.365279 0.166410
H4    H     H_    0.907078 0.577446 0.634445 0.165134
H5    H     H_    0.271378 0.148004 0.945051 0.125790
H6    H     H_    0.732261 0.851636 0.054861 0.128180
H7    H     H_    0.228626 0.647942 0.554953 0.125784
H8    H     H_    0.767733 0.351707 0.445134 0.128167
N1    N     N_3   0.063947 0.922955 0.207270 -0.583736
H9    H     H_    0.090207 0.807780 0.221318 0.226377
H10   H     H_    0.082206 0.035249 0.248398 0.224154
N2    N     N_3   0.935499 0.099503 0.796806 -0.551564
H11   H     H_    0.910559 0.218300 0.785855 0.233673
H12   H     H_    0.916032 0.992507 0.753095 0.241961
N3    N     N_3   0.436050 0.422850 0.292746 -0.583753
H13   H     H_    0.409790 0.307673 0.278718 0.226397
H14   H     H_    0.417793 0.535125 0.251597 0.224148
N4    N     N_3   0.564505 0.599601 0.703174 -0.551577
H15   H     H_    0.589446 0.718396 0.714105 0.233681
H16   H     H_    0.583969 0.492623 0.746905 0.241967
O21   O     O_3   0.142360 0.129123 0.940890 -0.640946
H17   H     H_    0.176619 0.075784 0.979716 0.283952
O22   O     O_3   0.857089 0.871411 0.059516 -0.647087
H18   H     H_    0.822402 0.917488 0.018880 0.284153
O23   O     O_3   0.357643 0.629191 0.559093 -0.640944
H19   H     H_    0.323385 0.575816 0.520284 0.283952
O24   O     O_3   0.642907 0.371315 0.440503 -0.647084
H20   H     H_    0.677594 0.417427 0.481123 0.284152
O25   O     O_3   0.961536 0.860002 0.176102 -0.615793
H21   H     H_    0.925481 0.829566 0.191516 0.335407
O26   O     O_3   0.037036 0.176519 0.831184 -0.613516
H22   H     H_    0.072106 0.230247 0.820903 0.338157
O27   O     O_3   0.538460 0.359898 0.323919 -0.615792
H23   H     H_    0.574517 0.329533 0.308494 0.335405
O28   O     O_3   0.462967 0.676594 0.668794 -0.613517
H24   H     H_    0.427898 0.730332 0.679071 0.338161
N5    N     N_3   0.595690 0.866170 0.260196 -0.556516
H25   H     H_    0.592454 0.970308 0.309280 0.267505
H26   H     H_    0.573102 0.750318 0.274251 0.267942
N6    N     N_3   0.424273 0.356611 0.803979 -0.546897
H27   H     H_    0.439545 0.491203 0.819863 0.276900
H28   H     H_    0.439194 0.306817 0.746150 0.271688
N7    N     N_3   0.904307 0.366243 0.239801 -0.556506
H29   H     H_    0.907551 0.470383 0.190719 0.267489
H30   H     H_    0.926889 0.250380 0.225750 0.267963
N8    N     N_3   0.075736 0.856507 0.696038 -0.546889
H31   H     H_    0.060809 0.806703 0.753861 0.271690
H32   H     H_    0.060471 0.991108 0.680156 0.276905
O29   O     O_3   0.684288 0.806818 0.200318 -0.611947
H33   H     H_    0.722970 0.771238 0.199873 0.304103
O30   O     O_3   0.327365 0.254597 0.817469 -0.611338
H34   H     H_    0.286429 0.254482 0.807225 0.302198
O31   O     O_3   0.815704 0.306915 0.299675 -0.611943
H35   H     H_    0.777021 0.271345 0.300121 0.304100
O32   O     O_3   0.172642 0.754490 0.682543 -0.611335
H36   H     H_    0.213577 0.754367 0.692786 0.302200
O33   O     O_3   0.490248 0.994453 0.222079 -0.645522
H37   H     H_    0.467005 0.107859 0.213702 0.323323
O34   O     O_3   0.535011 0.333077 0.873429 -0.650701
H38   H     H_    0.567890 0.367658 0.922642 0.298113
O35   O     O_3   0.009752 0.494497 0.277922 -0.645529
H39   H     H_    0.032997 0.607900 0.286302 0.323306
O36   O     O_3   0.964998 0.833029 0.626582 -0.650694
H40   H     H_    0.932121 0.867624 0.577370 0.298117

loop_
_geom_bond_atom_site_label_1
_geom_bond_atom_site_label_2
_ccdc_geom_bond_type
C34   O30   S    
C34   C38   A    
C59   C63   A    
O1    C5    A    
O19   V1    S    
O25   H21   S    
O13   V1    S    
C45   C53   A    
O3    C7    A    
O34   H38   S    
C48   C52   A    
O15   V3    S    
N6    H27   S    
C47   C55   A    
C58   O34   S    
O35   H39   S    
O28   H24   S    
C14   C25   A    
C53   C54   A    
O7    C3    A    
C9    C18   A    
O9    V1    S    
C18   O21   S    
C14   C18   A    
C36   O32   S    
C55   C60   A    
O4    C8    A    
C46   C54   A    
N4    H15   S    
C63   N7    S    
O24   H20   S    
N1    H9    S    
O1    V3    S    
C44   H3    S    
C12   C23   A    
O2    V4    S    
C33   C49   A    
O3    V1    S    
C46   C50   A    
N2    H11   S    
C19   O24   S    
C29   C37   A    
C1    O15   A    
O22   H18   S    
C2    O16   A    
C7    C9    S    
C31   C39   A    
O2    C6    A    
O36   H40   S    
C32   C40   A    
C45   C49   A    
O14   V2    S    
C29   C41   A    
C52   C64   A    
C16   C20   A    
C4    C29   S    
C44   C48   A    
O11   C7    A    
C15   C28   A    
O12   C8    A    
C9    C22   A    
C10   C17   A    
O10   V2    S    
C56   C59   A    
C11   C24   A    
N1    H10   S    
O33   H37   S    
C42   H1    S    
O5    V1    S    
C41   H2    S    
O7    V3    S    
C62   N6    S    
C27   C28   A    
O8    V4    S    
C10   C21   A    
C37   H6    S    
C15   C19   A    
C30   C38   A    
C58   C62   A    
C24   N3    S    
C39   H8    S    
C36   C52   A    
C8    C10   S    
O5    C1    A    
C11   C20   A    
C31   C43   A    
C21   C25   A    
O8    C4    A    
C23   N4    S    
N2    H12   S    
C33   O29   S    
N3    H14   S    
C1    C32   S    
C50   C62   A    
O26   H22   S    
C33   C37   A    
C2    C31   S    
C49   C61   A    
O27   H23   S    
C3    C30   S    
C30   C42   A    
C14   O26   S    
C51   C63   A    
O6    V2    S    
C22   N1    S    
C20   O23   S    
C57   O33   S    
N5    H25   S    
N7    H29   S    
C35   C51   A    
C34   C50   A    
O23   H19   S    
O16   V4    S    
C16   O28   S    
C3    O13   A    
C61   N5    S    
O17   V3    S    
C60   C64   A    
C40   H7    S    
N7    H30   S    
C21   N2    S    
N6    H28   S    
O6    C2    A    
C23   C27   A    
O30   H34   S    
O11   V3    S    
N8    H31   S    
C5    C11   S    
O12   V4    S    
C16   C27   A    
C6    C12   S    
O29   H33   S    
C22   C26   A    
C35   C39   A    
C15   O27   S    
C36   C40   A    
O10   C6    A    
O20   V2    S    
C64   N8    S    
C48   C56   A    
C32   C44   A    
O21   H17   S    
O9    C5    A    
C47   C51   A    
C13   C26   A    
C54   C57   A    
C42   C46   A    
N4    H16   S    
C53   C58   A    
C41   C45   A    
C43   H4    S    
N8    H32   S    
C43   C47   A    
C13   C17   A    
O4    V2    S    
C55   C56   A    
C60   O36   S    
C24   C28   A    
C13   O25   S    
C35   O31   S    
C25   C26   A    
C17   O22   S    
C38   H5    S    
C4    O14   A    
N3    H13   S    
N5    H26   S    
C12   C19   A    
O31   H35   S    
O18   V4    S    
C57   C61   A    
O32   H36   S    
C59   O35   S    
