data_str_m3_o14_o17_f0_pcu.sym.218
_audit_creation_date              2012-12-10T17:43:36-0500
_audit_creation_method            fapswitch 2.2
_symmetry_space_group_name_H-M    P1
_symmetry_Int_Tables_number       1
_space_group_crystal_system       triclinic
_cell_length_a                    14.860073
_cell_length_b                    10.630852
_cell_length_c                    9.922877
_cell_angle_alpha                 89.750775
_cell_angle_beta                  90.136807
_cell_angle_gamma                 91.590554
_cell_volume                      1566.94601296

loop_
_atom_site_label
_atom_site_type_symbol
_atom_type_description
_atom_site_fract_x
_atom_site_fract_y
_atom_site_fract_z
_atom_type_partial_charge
C1    C     C_R   0.502830 0.260754 0.500343 0.838650
C2    C     C_R   0.908429 0.617370 0.498089 -0.003355
C3    C     C_R   0.948656 0.271870 0.478588 -0.218972
C4    C     C_R   0.042163 0.271774 0.479606 -0.219537
C5    C     C_R   0.091323 0.385685 0.486557 0.156187
C6    C     C_R   0.046795 0.501408 0.491582 0.050300
C7    C     C_R   0.096134 0.616537 0.499437 0.044641
C8    C     C_R   0.051856 0.730783 0.503559 -0.310803
C9    C     C_R   0.958134 0.732525 0.499309 0.487311
C10   C     C_R   0.184511 0.386225 0.489666 -0.283820
C11   C     C_R   0.232011 0.500378 0.498752 -0.025303
C12   C     C_R   0.327241 0.499993 0.499803 0.859461
C13   C     C_R   0.189316 0.615054 0.503344 -0.216852
C14   C     C_R   0.649179 0.135973 0.637784 -0.202423
C15   C     C_R   0.717890 0.072650 0.702940 -0.138096
C16   C     C_R   0.717971 0.941828 0.702585 -0.116208
C17   C     C_R   0.649456 0.873989 0.636786 -0.210583
C18   C     C_R   0.579174 0.936724 0.570115 0.098503
C19   C     C_R   0.578950 0.068582 0.570749 0.099294
C20   C     C_R   0.509231 0.128635 0.500676 -0.085538
C21   C     C_R   0.443864 0.062285 0.427313 -0.219391
C22   C     C_R   0.444173 0.933865 0.426568 -0.199131
C23   C     C_R   0.503157 0.739408 0.499788 0.864654
C24   C     C_R   0.509771 0.871963 0.499333 -0.091923
C25   C     C_R   0.382615 0.334635 0.140156 -0.110345
C26   C     C_R   0.325130 0.252532 0.070263 -0.189868
C27   C     C_R   0.325444 0.252069 0.930788 -0.185704
C28   C     C_R   0.383209 0.333757 0.860459 -0.111276
C29   C     C_R   0.442708 0.417900 0.927942 0.148699
C30   C     C_R   0.442474 0.418255 0.072302 0.064510
C31   C     C_R   0.556449 0.578518 0.072780 0.544752
C32   C     C_R   0.554468 0.579328 0.927774 -0.251691
C33   C     C_R   0.672765 0.499818 0.500013 0.856318
C34   C     C_R   0.815091 0.614588 0.505157 -0.255764
C35   C     C_R   0.768019 0.500030 0.499344 -0.052127
C36   C     C_R   0.811033 0.386341 0.487093 -0.275300
C37   C     C_R   0.904082 0.385911 0.485096 0.160596
C38   C     C_R   0.953142 0.501703 0.490975 -0.000793
H1    H     H_    0.778431 0.700752 0.513361 0.154561
H2    H     H_    0.652677 0.237546 0.639003 0.158828
H3    H     H_    0.771510 0.125325 0.753105 0.146413
H4    H     H_    0.771582 0.892708 0.752583 0.151674
H5    H     H_    0.653019 0.772681 0.637354 0.143522
H6    H     H_    0.391787 0.882332 0.371922 0.150243
H7    H     H_    0.377908 0.329997 0.246991 0.194386
H8    H     H_    0.279881 0.189165 0.124846 0.140872
H9    H     H_    0.280400 0.188375 0.876546 0.147778
H10   H     H_    0.378863 0.328591 0.753598 0.198319
H11   H     H_    0.772045 0.298879 0.479994 0.128402
H12   H     H_    0.595656 0.644815 0.870081 0.157443
H13   H     H_    0.911144 0.183072 0.474434 0.161859
H14   H     H_    0.076133 0.182986 0.476277 0.140525
H15   H     H_    0.220282 0.298658 0.485518 0.115669
H16   H     H_    0.228807 0.702315 0.509316 0.125929
H17   H     H_    0.089924 0.819096 0.509407 0.162531
H18   H     H_    0.391309 0.110164 0.373025 0.136638
N1    N     N_R   0.499150 0.498800 0.142780 -0.155851
N2    N     N_R   0.499120 0.498720 0.857170 -0.135537
O1    O     O_R   0.500000 0.316780 0.614690 -0.642510
O2    O     O_R   0.499990 0.316750 0.385360 -0.636476
O3    O     O_R   0.367850 0.499980 0.614680 -0.627606
O4    O     O_R   0.367840 0.499960 0.385350 -0.637741
O5    O     O_R   0.500010 0.683250 0.614640 -0.620612
O6    O     O_R   0.500000 0.683220 0.385310 -0.564702
O7    O     O_R   0.632160 0.500040 0.614650 -0.627744
O8    O     O_R   0.632150 0.500020 0.385320 -0.587850
Zn1   Zn    Zn3+2 0.500010 0.500020 0.653130 0.932279
Zn2   Zn    Zn3+2 0.499990 0.499980 0.346870 0.975350
O9    O     O_3   0.609469 0.662394 0.148309 -0.606596
C39   C     C_3   0.696210 0.688380 0.094158 0.060794
H19   H     H_    0.729513 0.758367 0.161881 0.164948
H20   H     H_    0.693649 0.736114 0.994726 0.120811
C40   C     C_3   0.754879 0.571498 0.091461 -0.378185
H21   H     H_    0.757287 0.528859 0.193672 0.252595
H22   H     H_    0.725885 0.500420 0.020800 0.212098
C41   C     C_3   0.850699 0.605461 0.046757 -0.935613
H23   H     H_    0.850257 0.647803 0.944210 0.268435
H24   H     H_    0.891086 0.519200 0.044426 0.272498
H25   H     H_    0.882942 0.673020 0.118321 0.259314
O10   O     O_3   0.916643 0.847327 0.507569 -0.652827
C42   C     C_3   0.884566 0.883446 0.378908 0.060350
H26   H     H_    0.832326 0.954607 0.395128 0.177473
H27   H     H_    0.851011 0.804308 0.323401 0.123421
C43   C     C_3   0.960171 0.942505 0.292489 -0.381952
H28   H     H_    0.997564 0.015343 0.351538 0.229232
H29   H     H_    0.007986 0.868981 0.263160 0.215930
C44   C     C_3   0.922734 0.002434 0.164849 -0.943110
H30   H     H_    0.885388 0.930762 0.103764 0.260118
H31   H     H_    0.979024 0.042678 0.103560 0.269547
H32   H     H_    0.876873 0.079338 0.191153 0.265056

loop_
_geom_bond_atom_site_label_1
_geom_bond_atom_site_label_2
_ccdc_geom_bond_type
O8    Zn2   S    
C44   H30   S    
C16   H4    S    
C40   H21   S    
C35   C36   A    
C43   C44   S    
C32   N2    A    
C42   H26   S    
C33   O7    A    
C7    C8    A    
C26   C27   A    
C29   C30   A    
C4    H14   S    
C18   C24   A    
O6    Zn2   S    
C36   C37   A    
C41   H24   S    
C18   C19   A    
C1    O1    A    
C5    C6    A    
C15   C16   A    
C30   N1    A    
C34   C35   A    
C10   H15   S    
C2    C38   A    
O1    Zn1   S    
C28   H10   S    
C19   C20   A    
C8    C9    A    
O7    Zn1   S    
C23   C24   S    
C6    C38   A    
C39   H19   S    
C2    C34   A    
C23   O5    A    
C21   C22   A    
C40   H22   S    
C8    H17   S    
C42   H27   S    
C33   O8    A    
O5    Zn1   S    
C34   H1    S    
C43   H28   S    
C15   H3    S    
C1    O2    A    
C3    H13   S    
O10   C42   S    
C25   C26   A    
C9    O10   S    
C17   H5    S    
C37   C38   A    
C12   O4    A    
O3    Zn1   S    
C31   C32   A    
C7    C13   A    
C20   C21   A    
C39   C40   S    
C17   C18   A    
C41   H23   S    
C32   H12   S    
C23   O6    A    
C44   H31   S    
C40   C41   S    
C22   C24   A    
N1    Zn2   S    
C3    C4    A    
C25   H7    S    
C42   C43   S    
C13   H16   S    
C27   H9    S    
C25   C30   A    
C28   C29   A    
C1    C20   S    
C22   H6    S    
C14   C19   A    
C43   H29   S    
C4    C5    A    
C21   H18   S    
C11   C12   S    
C6    C7    A    
O4    Zn2   S    
C31   N1    A    
C5    C10   A    
C12   O3    A    
C11   C13   A    
C16   C17   A    
C33   C35   S    
O9    C39   S    
C10   C11   A    
C26   H8    S    
C14   H2    S    
N2    Zn1   S    
C31   O9    S    
C41   H25   S    
C29   N2    A    
O2    Zn2   S    
C44   H32   S    
C27   C28   A    
C14   C15   A    
C39   H20   S    
C2    C9    A    
C36   H11   S    
C3    C37   A    
