data_str_m9_o13_o2_f0_sra.sym.66
_audit_creation_date              2012-12-11T14:57:59-0500
_audit_creation_method            fapswitch 2.2
_symmetry_space_group_name_H-M    P1
_symmetry_Int_Tables_number       1
_space_group_crystal_system       triclinic
_cell_length_a                    6.93559
_cell_length_b                    16.76519
_cell_length_c                    17.001725
_cell_angle_alpha                 100.506155
_cell_angle_beta                  89.327284
_cell_angle_gamma                 91.595265
_cell_volume                      1942.96067322

loop_
_atom_site_label
_atom_site_type_symbol
_atom_type_description
_atom_site_fract_x
_atom_site_fract_y
_atom_site_fract_z
_atom_type_partial_charge
O1    O     O_R   0.506180 0.438940 0.579430 -0.541461
O2    O     O_R   0.170520 0.406230 0.413590 -0.538973
O3    O     O_R   0.005180 0.561060 0.420570 -0.539282
C1    C     C_R   0.338994 0.383007 0.385451 0.694237
O4    O     O_R   0.176140 0.429310 0.578370 -0.544028
O5    O     O_R   0.010830 0.584300 0.586530 -0.534358
C2    C     C_R   0.341745 0.413081 0.605001 0.720136
O6    O     O_R   0.500520 0.415700 0.413470 -0.534937
O7    O     O_3   0.340830 0.550820 0.502480 -0.365216
V1    V     V_3+5 0.064040 0.490570 0.499540 1.416181
O8    O     O_R   0.681400 0.593770 0.586410 -0.538220
C3    C     C_R   0.851096 0.616529 0.614767 0.695974
O9    O     O_R   0.675790 0.570690 0.421630 -0.539644
C4    C     C_R   0.847189 0.585992 0.394778 0.691544
V2    V     V_3+5 0.564650 0.509430 0.500460 1.418417
O10   O     O_3   0.837730 0.449180 0.497520 -0.368873
C5    C     C_R   0.900236 0.863721 0.168912 -0.265192
C6    C     C_R   0.869880 0.635908 0.331549 -0.055954
C7    C     C_R   0.045654 0.663196 0.213868 -0.144610
C8    C     C_R   0.004789 0.613390 0.269796 -0.178036
C9    C     C_R   0.773436 0.709130 0.335811 -0.189373
C10   C     C_R   0.817321 0.760786 0.280715 0.031570
C11   C     C_R   0.956454 0.738361 0.219496 0.059873
C12   C     C_R   0.002848 0.791289 0.165146 0.308745
C13   C     C_R   0.769713 0.887125 0.232966 0.386321
C14   C     C_R   0.727142 0.835337 0.287172 -0.286028
H1    H     H_    0.149348 0.642874 0.166891 0.148050
H2    H     H_    0.623382 0.853993 0.334696 0.147149
H3    H     H_    0.080138 0.556969 0.265129 0.117297
H4    H     H_    0.670604 0.727368 0.383815 0.114007
H5    H     H_    0.705495 0.634667 0.977962 0.115018
C15   C     C_R   0.990037 0.907412 0.723514 -0.225807
C16   C     C_R   0.019735 0.922093 0.645984 0.508998
C17   C     C_R   0.007606 0.857464 0.581200 -0.207593
C18   C     C_R   0.957899 0.779511 0.593483 -0.213760
C19   C     C_R   0.920768 0.763839 0.671306 0.074394
C20   C     C_R   0.938303 0.828964 0.737639 -0.000135
C21   C     C_R   0.863975 0.685087 0.683598 -0.161446
C22   C     C_R   0.821373 0.671812 0.762075 0.064925
C23   C     C_R   0.840461 0.736863 0.828470 0.063669
C24   C     C_R   0.900512 0.815190 0.816268 -0.151958
C25   C     C_R   0.760156 0.594327 0.776083 -0.149266
C26   C     C_R   0.717564 0.581631 0.853262 -0.134939
C27   C     C_R   0.737695 0.645000 0.918104 -0.100434
C28   C     C_R   0.799037 0.721775 0.906240 -0.111072
H6    H     H_    0.947353 0.731919 0.541222 0.120036
H7    H     H_    0.743668 0.542896 0.727700 0.099970
H8    H     H_    0.668592 0.522309 0.862877 0.104967
H9    H     H_    0.813242 0.769019 0.958645 0.103621
C29   C     C_R   0.296202 0.214630 0.401710 -0.233204
C30   C     C_R   0.282004 0.134049 0.412536 0.494692
C31   C     C_R   0.298062 0.071462 0.346713 -0.204219
C32   C     C_R   0.337808 0.088907 0.271036 -0.220157
C33   C     C_R   0.362630 0.169975 0.258990 0.044190
C34   C     C_R   0.336334 0.234005 0.325483 0.008656
C35   C     C_R   0.415438 0.187386 0.182565 -0.175784
C36   C     C_R   0.436273 0.270061 0.172319 -0.030763
C37   C     C_R   0.395986 0.333597 0.238502 0.024746
C38   C     C_R   0.351251 0.315710 0.315124 -0.132019
C39   C     C_R   0.494455 0.292609 0.098120 0.421107
C40   C     C_R   0.488001 0.373974 0.088760 -0.176846
C41   C     C_R   0.441678 0.434457 0.152539 -0.201340
C42   C     C_R   0.399946 0.415046 0.226858 -0.153329
H10   H     H_    0.276819 0.261496 0.453904 0.117774
H11   H     H_    0.281659 0.008894 0.354368 0.141373
H12   H     H_    0.351964 0.037823 0.222492 0.158068
H13   H     H_    0.522657 0.390445 0.031425 0.123825
H14   H     H_    0.367072 0.464778 0.274840 0.110373
C43   C     C_R   0.429204 0.140143 0.833831 -0.080113
C44   C     C_R   0.334980 0.359748 0.666405 -0.113102
C45   C     C_R   0.145320 0.302707 0.767954 0.440008
C46   C     C_R   0.165935 0.356199 0.712625 -0.259753
C47   C     C_R   0.485505 0.308034 0.675180 -0.257848
C48   C     C_R   0.465264 0.251945 0.727464 0.080362
C49   C     C_R   0.294545 0.248679 0.773743 0.069560
C50   C     C_R   0.277629 0.192023 0.826150 -0.162734
C51   C     C_R   0.596175 0.143749 0.786522 -0.143556
C52   C     C_R   0.613266 0.198356 0.733675 -0.116478
H15   H     H_    0.715439 0.104393 0.790766 0.126146
H16   H     H_    0.048323 0.394771 0.704334 0.132330
H17   H     H_    0.615495 0.309405 0.639343 0.132142
O11   O     O_R   0.265840 0.084300 0.086750 -0.551773
O12   O     O_R   0.589750 0.070740 0.921690 -0.540176
O13   O     O_R   0.755020 0.915730 0.913400 -0.542334
C53   C     C_R   0.423973 0.086536 0.894829 0.750009
O14   O     O_R   0.595830 0.093740 0.086480 -0.520454
O15   O     O_R   0.761150 0.938890 0.079360 -0.528551
C54   C     C_R   0.427328 0.118665 0.113288 0.802709
O16   O     O_R   0.259710 0.061140 0.920790 -0.546512
O17   O     O_3   0.425260 0.949200 0.997610 -0.368932
V3    V     V_3+5 0.702060 0.009430 0.000450 1.439903
O18   O     O_R   0.090530 0.929220 0.078150 -0.533604
C55   C     C_R   0.919656 0.913683 0.105040 0.784962
O19   O     O_R   0.084440 0.906220 0.913360 -0.534041
C56   C     C_R   0.914531 0.883524 0.885144 0.694605
V4    V     V_3+5 0.201450 0.990520 0.999290 1.437339
O20   O     O_3   0.928380 0.050800 0.002390 -0.384918
O21   O     O_3   0.137803 0.769724 0.104917 -0.557670
C57   C     C_3   0.322580 0.795130 0.135414 -0.177772
H18   H     H_    0.366025 0.760693 0.182080 0.118324
H19   H     H_    0.330430 0.861365 0.160142 0.153651
H20   H     H_    0.429352 0.783137 0.085836 0.152953
H21   H     H_    0.036396 0.867641 0.521026 0.131358
H22   H     H_    0.440265 0.497075 0.144600 0.135319
O22   O     O_3   0.241046 0.116622 0.487289 -0.558376
C58   C     C_3   0.416944 0.109199 0.525730 -0.235764
H23   H     H_    0.505704 0.166406 0.532756 0.122100
H24   H     H_    0.500250 0.057441 0.493062 0.127402
H25   H     H_    0.385105 0.096881 0.586547 0.202901
O23   O     O_3   0.679670 0.960772 0.242610 -0.558443
C59   C     C_3   0.804010 0.020464 0.286230 -0.239453
H26   H     H_    0.940997 0.026877 0.253050 0.126811
H27   H     H_    0.834146 0.007098 0.346642 0.137207
H28   H     H_    0.733411 0.079937 0.294788 0.170101
O24   O     O_3   0.553960 0.236019 0.033446 -0.575800
C60   C     C_3   0.755944 0.244886 0.024401 -0.172495
H29   H     H_    0.832752 0.232891 0.078028 0.127970
H30   H     H_    0.799126 0.305815 0.012158 0.111646
H31   H     H_    0.804046 0.200052 0.972200 0.179160
H32   H     H_    0.149780 0.189859 0.863022 0.153590
O25   O     O_3   0.976898 0.296322 0.812300 -0.563922
C61   C     C_3   0.890440 0.371894 0.838184 -0.277633
H33   H     H_    0.801025 0.387901 0.789876 0.146653
H34   H     H_    0.998395 0.421082 0.860286 0.138192
H35   H     H_    0.791377 0.366388 0.888682 0.164214
H36   H     H_    0.743900 0.199354 0.698256 0.132718
H37   H     H_    0.004653 0.958675 0.772210 0.118627
O26   O     O_3   0.072368 0.999502 0.635154 -0.555133
C62   C     C_3   0.917707 0.032571 0.599753 -0.229555
H38   H     H_    0.780689 0.029108 0.634010 0.110899
H39   H     H_    0.898531 0.002393 0.536346 0.142739
H40   H     H_    0.951455 0.097700 0.600142 0.190636

loop_
_geom_bond_atom_site_label_1
_geom_bond_atom_site_label_2
_ccdc_geom_bond_type
C49   C50   A    
O15   V3    S    
C6    C9    A    
C29   H10   S    
C47   C48   A    
C4    C6    S    
C43   C51   A    
C59   H26   S    
C1    O6    A    
O26   C62   S    
C2    C44   S    
O17   V3    S    
C51   C52   A    
C35   C36   A    
C50   H32   S    
C12   O21   S    
C15   H37   S    
C19   C20   A    
C34   C38   A    
O14   V3    S    
O5    C3    A    
C21   C22   A    
O14   C54   A    
C35   C54   S    
C58   H23   S    
O24   C60   S    
O18   V4    S    
C60   H29   S    
C43   C50   A    
C17   C18   A    
O23   C59   S    
C42   H14   S    
O8    V2    S    
C7    C8    A    
C11   C12   A    
O1    V2    S    
O13   V3    S    
C7    H1    S    
O7    V1    S    
C9    H4    S    
C62   H40   S    
O9    C4    A    
C3    C21   S    
O19   C56   A    
C47   H17   S    
C16   C17   A    
C22   C25   A    
C41   H22   S    
C8    H3    S    
C51   H15   S    
C23   C28   A    
C33   C35   A    
C5    C12   A    
O11   V4    S    
H5    C27   S    
C30   C31   A    
C48   C49   A    
C22   C23   A    
O4    C2    A    
C53   O16   A    
C36   C39   A    
C13   C14   A    
C32   C33   A    
C16   O26   S    
C39   C40   A    
O13   C56   A    
C7    C11   A    
C26   C27   A    
C41   C42   A    
C40   H13   S    
C57   H18   S    
C28   H9    S    
C30   O22   S    
V4    O20   S    
C44   C47   A    
C29   C30   A    
C59   H27   S    
C15   C20   A    
V3    O20   S    
O19   V4    S    
C32   H12   S    
O25   C61   S    
O3    C4    A    
C13   O23   S    
C23   C24   A    
C57   H19   S    
O6    V2    S    
O9    V2    S    
C10   C14   A    
C5    C55   S    
C25   C26   A    
C61   H34   S    
O2    V1    S    
C43   C53   S    
C31   C32   A    
C62   H38   S    
C26   H8    S    
C37   C42   A    
C33   C34   A    
O12   C53   A    
O1    C2    A    
C45   O25   S    
C27   C28   A    
C17   H21   S    
O5    V1    S    
O8    C3    A    
O17   V4    S    
O12   V3    S    
O22   C58   S    
C14   H2    S    
C29   C34   A    
C60   H31   S    
C5    C13   A    
C15   C16   A    
O16   V4    S    
C19   C21   A    
C37   C38   A    
C45   C46   A    
C46   H16   S    
O3    V1    S    
V1    O10   S    
C45   C49   A    
C36   C37   A    
C24   C56   S    
C58   H24   S    
C61   H35   S    
O11   C54   A    
O2    C1    A    
O15   C55   A    
C1    C38   S    
O18   C55   A    
C60   H30   S    
C59   H28   S    
C6    C8    A    
C25   H7    S    
C20   C24   A    
C40   C41   A    
O4    V1    S    
C57   H20   S    
O21   C57   S    
C48   C52   A    
C10   C11   A    
C39   O24   S    
C44   C46   A    
C18   C19   A    
C61   H33   S    
C9    C10   A    
C18   H6    S    
C31   H11   S    
V2    O10   S    
O7    V2    S    
C62   H39   S    
C58   H25   S    
C52   H36   S    
