data_str_m12_o9_o22_f0_bcu.sym.23
_audit_creation_date              2012-12-11T17:45:25-0500
_audit_creation_method            fapswitch 2.2
_symmetry_space_group_name_H-M    P1
_symmetry_Int_Tables_number       1
_space_group_crystal_system       triclinic
_cell_length_a                    15.069779
_cell_length_b                    14.941888
_cell_length_c                    15.297776
_cell_angle_alpha                 110.468607
_cell_angle_beta                  108.644815
_cell_angle_gamma                 108.995353
_cell_volume                      2661.02388814

loop_
_atom_site_label
_atom_site_type_symbol
_atom_type_description
_atom_site_fract_x
_atom_site_fract_y
_atom_site_fract_z
_atom_type_partial_charge
C1    C     C_R   0.966674 0.237531 0.050911 0.508055
C2    C     C_R   0.690386 0.213329 0.778927 -0.145171
C3    C     C_R   0.777665 0.593097 0.030695 -0.148666
C4    C     C_R   0.312776 0.755361 0.222781 -0.192063
C5    C     C_R   0.969156 0.412364 0.689180 -0.145204
C6    C     C_R   0.676049 0.501198 0.957717 0.053562
C7    C     C_R   0.000720 0.508182 0.684318 0.070659
C8    C     C_R   0.682203 0.171801 0.678363 0.057090
C9    C     C_R   0.066004 0.870380 0.070317 0.070703
C10   C     C_R   0.597313 0.299122 0.169437 -0.121090
C11   C     C_R   0.700747 0.377081 0.254737 -0.179189
C12   C     C_R   0.319715 0.781580 0.322599 0.061765
C13   C     C_R   0.767896 0.344391 0.306367 -0.085586
C14   C     C_R   0.730321 0.230698 0.269975 0.521301
C15   C     C_R   0.625213 0.153364 0.185503 0.055100
C16   C     C_R   0.210281 0.410316 0.904350 -0.288107
C17   C     C_R   0.559288 0.187742 0.134913 -0.261122
C18   C     C_R   0.889695 0.436798 0.498922 -0.245022
C19   C     C_R   0.988416 0.514028 0.591066 0.049341
C20   C     C_R   0.074909 0.586797 0.589848 -0.033925
C21   C     C_R   0.062348 0.572796 0.491538 -0.025073
C22   C     C_R   0.959957 0.500747 0.400383 0.053574
C23   C     C_R   0.299362 0.502348 0.929660 0.026587
C24   C     C_R   0.873669 0.429798 0.402593 0.009912
C25   C     C_R   0.178253 0.781547 0.738408 -0.215088
C26   C     C_R   0.275444 0.876403 0.819535 -0.133260
C27   C     C_R   0.371726 0.873931 0.845687 -0.129299
C28   C     C_R   0.997977 0.590206 0.298728 -0.143677
C29   C     C_R   0.370649 0.775669 0.793788 -0.003043
C30   C     C_R   0.272899 0.679039 0.716217 -0.071473
C31   C     C_R   0.175820 0.681461 0.687209 0.111117
C32   C     C_R   0.118227 0.913843 0.406656 -0.059017
C33   C     C_R   0.220425 0.948521 0.415665 0.080487
C34   C     C_R   0.949214 0.498572 0.303912 0.040391
C35   C     C_R   0.299613 0.945513 0.492965 0.054268
C36   C     C_R   0.279547 0.923289 0.568690 -0.191956
C37   C     C_R   0.179549 0.897070 0.563129 -0.143940
C38   C     C_R   0.098286 0.890710 0.481304 -0.175230
C39   C     C_R   0.491656 0.055184 0.573341 -0.259566
C40   C     C_R   0.293652 0.591989 0.988319 0.490399
C41   C     C_R   0.591644 0.072024 0.585095 0.069134
C42   C     C_R   0.602360 0.990343 0.514385 0.061605
C43   C     C_R   0.511685 0.892589 0.433181 -0.259693
C44   C     C_R   0.411087 0.875644 0.421003 0.068182
C45   C     C_R   0.686532 0.408815 0.940472 -0.141672
C46   C     C_R   0.400873 0.957897 0.493013 0.024285
C47   C     C_R   0.741533 0.040749 0.461271 -0.160551
C48   C     C_R   0.851067 0.091048 0.493571 -0.251862
C49   C     C_R   0.924769 0.099657 0.583645 -0.192285
C50   C     C_R   0.889207 0.058053 0.642130 0.596421
C51   C     C_R   0.779205 0.008625 0.610575 -0.325081
C52   C     C_R   0.914598 0.407493 0.210790 -0.079640
C53   C     C_R   0.706594 0.005170 0.523662 0.076410
C54   C     C_3   0.474766 0.395325 0.843104 -0.420198
C55   C     C_3   0.372291 0.400732 0.834012 -0.473757
C56   C     C_R   0.051447 0.596840 0.784207 -0.093499
C57   C     C_3   0.569363 0.511789 0.045655 -0.441768
C58   C     C_3   0.573087 0.598585 0.928803 -0.627480
C59   C     C_3   0.575101 0.501672 0.943230 0.345438
C60   C     C_3   0.400401 0.505380 0.934246 0.227791
C61   C     C_3   0.460590 0.499192 0.034788 -0.218139
C62   C     C_3   0.477140 0.610514 0.937911 0.627178
C63   C     C_R   0.156799 0.045440 0.784768 -0.039345
C64   C     C_R   0.217593 0.739357 0.308582 -0.128997
C65   C     C_R   0.123338 0.044623 0.859771 -0.096274
C66   C     C_R   0.191085 0.125511 0.968112 0.093084
C67   C     C_R   0.780636 0.227387 0.688082 -0.121603
C68   C     C_R   0.296529 0.201201 0.002077 -0.182063
C69   C     C_R   0.331945 0.197361 0.927313 -0.166629
C70   C     C_R   0.261458 0.121372 0.818521 -0.143498
C71   C     C_R   0.167432 0.035188 0.068201 -0.255498
C72   C     C_R   0.104288 0.988560 0.106872 0.075146
C73   C     C_R   0.068730 0.052933 0.163717 0.015762
C74   C     C_R   0.083368 0.149692 0.163819 -0.258359
C75   C     C_R   0.102383 0.164827 0.085428 0.087011
C76   C     C_R   0.066964 0.251085 0.970170 -0.145255
C77   C     C_R   0.158078 0.115403 0.046412 0.042370
C78   C     C_R   0.004441 0.805318 0.097511 -0.133734
C79   C     C_R   0.887465 0.946743 0.132951 -0.195293
C80   C     C_R   0.816099 0.912720 0.168818 -0.084095
C81   C     C_R   0.853903 0.946921 0.276839 -0.176539
C82   C     C_R   0.962810 0.021170 0.350357 -0.188823
C83   C     C_R   0.035464 0.059455 0.316648 0.537472
C84   C     C_R   0.997993 0.016332 0.205542 -0.062930
C85   C     C_R   0.047602 0.215227 0.037386 -0.142282
C86   C     C_R   0.093152 0.804450 0.006020 -0.157726
H1    H     H_    0.084575 0.682541 0.810369 0.111980
H2    H     H_    0.727932 0.463325 0.281920 0.132422
H3    H     H_    0.378011 0.778676 0.205322 0.123537
H4    H     H_    0.824576 0.381560 0.502192 0.147983
H5    H     H_    0.104602 0.785937 0.714929 0.112820
H6    H     H_    0.276662 0.952534 0.860279 0.136860
H7    H     H_    0.447191 0.948667 0.904631 0.099478
H8    H     H_    0.445985 0.775203 0.812464 0.131609
H9    H     H_    0.273098 0.603750 0.674832 0.107979
H10   H     H_    0.019173 0.865452 0.474244 0.116724
H11   H     H_    0.182756 0.325500 0.850556 0.159769
H12   H     H_    0.803026 0.215581 0.627270 0.125888
H13   H     H_    0.053115 0.901408 0.339919 0.102232
H14   H     H_    0.340040 0.922362 0.629640 0.131046
H15   H     H_    0.163614 0.876976 0.619478 0.128758
H16   H     H_    0.484184 0.118324 0.628079 0.134160
H17   H     H_    0.519371 0.830163 0.377953 0.133347
H18   H     H_    0.686231 0.040688 0.395310 0.159045
H19   H     H_    0.879283 0.128461 0.451941 0.197390
H20   H     H_    0.009992 0.141808 0.610143 0.139710
H21   H     H_    0.025459 0.674095 0.354988 0.120259
H22   H     H_    0.751668 0.982833 0.659431 0.122255
H23   H     H_    0.983741 0.831794 0.159141 0.105028
H24   H     H_    0.468824 0.321752 0.848687 0.157117
H25   H     H_    0.479769 0.384666 0.769416 0.170826
H26   H     H_    0.328847 0.398094 0.758528 0.181615
H27   H     H_    0.317701 0.324743 0.826817 0.184885
H28   H     H_    0.580511 0.447642 0.060933 0.150819
H29   H     H_    0.412057 0.416848 0.021410 0.160302
H30   H     H_    0.649245 0.676492 0.987952 0.142622
H31   H     H_    0.566986 0.583828 0.850052 0.180038
H32   H     H_    0.636710 0.592454 0.116108 0.164478
H33   H     H_    0.288542 0.120211 0.760788 0.129742
H34   H     H_    0.151534 0.829799 0.981095 0.096041
H35   H     H_    0.101753 0.985876 0.700890 0.118763
H36   H     H_    0.044420 0.980872 0.833562 0.112172
H37   H     H_    0.351871 0.260208 0.086276 0.119296
H38   H     H_    0.414160 0.252793 0.953395 0.113986
H39   H     H_    0.209574 0.998247 0.037551 0.125017
H40   H     H_    0.058094 0.199772 0.208962 0.176132
H41   H     H_    0.863932 0.323229 0.185158 0.173097
H42   H     H_    0.856905 0.918136 0.048331 0.131409
H43   H     H_    0.731705 0.859639 0.112614 0.100591
H44   H     H_    0.798467 0.916646 0.303488 0.146665
H45   H     H_    0.631596 0.178814 0.800523 0.098976
H46   H     H_    0.992482 0.047205 0.434074 0.146314
H47   H     H_    0.194346 0.740952 0.368352 0.125776
H48   H     H_    0.124358 0.250417 0.943300 0.173006
H49   H     H_    0.623751 0.324718 0.897611 0.090148
H50   H     H_    0.892479 0.117286 0.066078 0.317254
H51   H     H_    0.869684 0.249983 0.356840 0.317793
H52   H     H_    0.513882 0.008635 0.152818 0.104863
H53   H     H_    0.570151 0.998247 0.072668 0.108899
H54   H     H_    0.193175 0.710696 0.533072 0.119624
H55   H     H_    0.207394 0.597141 0.502438 0.106148
H56   H     H_    0.799149 0.678541 0.069213 0.106246
H57   H     H_    0.306584 0.063034 0.391058 0.121199
H58   H     H_    0.262398 0.932971 0.299382 0.117979
H59   H     H_    0.926390 0.045490 0.768812 0.301797
H60   H     H_    0.403761 0.564070 0.784654 0.297180
H61   H     H_    0.300925 0.731631 0.019667 0.300635
H62   H     H_    0.548414 0.779302 0.029432 0.143022
H63   H     H_    0.584968 0.722293 0.101966 0.064424
H64   H     H_    0.402763 0.554053 0.135458 0.101967
H65   H     H_    0.528142 0.581217 0.199010 0.116260
H66   H     H_    0.184842 0.154712 0.360646 0.316427
H67   H     H_    0.936124 0.330083 0.625330 0.114443
H68   H     H_    0.478316 0.128133 0.069376 0.140686
H69   H     H_    0.545996 0.325629 0.131510 0.114235
N1    N     N_R   0.947080 0.293830 0.002870 -0.075050
N2    N     N_R   0.153670 0.443180 0.946090 -0.056033
N3    N     N_R   0.002360 0.556820 0.208890 -0.047580
N4    N     N_R   0.210070 0.556820 0.002870 -0.106689
N5    N     N_R   0.945960 0.443180 0.152110 -0.047310
N6    N     N_R   0.151710 0.706170 0.208890 -0.043721
N7    N     N_R   0.004320 0.293830 0.946090 -0.061471
N8    N     N_R   0.789930 0.443180 0.997130 -0.037621
N9    N     N_3   0.586180 0.039376 0.151504 -0.178943
N10   N     N_3   0.154222 0.626161 0.481617 -0.212756
N11   N     N_3   0.240990 0.983360 0.344617 -0.214495
N12   N     N_R   0.054040 0.556820 0.847890 -0.045653
N13   N     N_3   0.520311 0.711341 0.038927 -0.160583
N14   N     N_3   0.475571 0.580828 0.134492 -0.217768
N15   N     N_R   0.848290 0.293830 0.791110 -0.040830
N16   N     N_R   0.995680 0.706170 0.053910 -0.041076
N17   N     N_R   0.052920 0.706170 0.997130 -0.044110
N18   N     N_R   0.791050 0.293830 0.847890 -0.040955
N19   N     N_R   0.846330 0.556820 0.053910 -0.041516
N20   N     N_R   0.997640 0.443180 0.791110 -0.037730
N21   N     N_R   0.208950 0.706170 0.152110 -0.051780
Ni1   Ni    Ni4+2 0.869690 0.369690 0.000000 0.237877
Ni2   Ni    Ni4+2 0.130310 0.630310 0.000000 0.211364
Ni3   Ni    Ni4+2 0.000970 0.369690 0.869780 0.231768
Ni4   Ni    Ni4+2 0.999030 0.630310 0.130220 0.199829
O1    O     O_3   0.899622 0.190552 0.084082 -0.800079
O2    O     O_3   0.793306 0.191744 0.313592 -0.776818
O3    O     O_3   0.964112 0.074835 0.734364 -0.800383
O4    O     O_3   0.418618 0.621229 0.853331 -0.762073
O5    O     O_3   0.333578 0.689861 0.990005 -0.742668
O6    O     O_3   0.141330 0.135127 0.394304 -0.777609

loop_
_geom_bond_atom_site_label_1
_geom_bond_atom_site_label_2
_ccdc_geom_bond_type
C25   C31   A    
C66   C68   A    
N16   N17   A    
C63   C65   A    
C58   C62   S    
C6    C45   A    
C55   H26   S    
C27   C29   A    
C41   C42   A    
C40   N4    A    
C62   N13   S    
C33   N11   S    
C9    C72   S    
C79   H42   S    
C3    C6    A    
C81   C82   A    
C81   H44   S    
C39   C41   A    
H61   O5    S    
C3    H56   S    
C26   C27   A    
C30   H9    S    
C83   C84   A    
C86   N17   A    
N12   N20   A    
C36   C37   A    
C2    N18   A    
C30   C31   A    
C12   C64   A    
C16   H11   S    
C57   C59   S    
H64   N14   S    
C10   C17   A    
C26   H6    S    
C23   C40   A    
C21   N10   S    
C54   H24   S    
C60   C62   S    
C18   C19   A    
N2    Ni3   S    
N3    Ni4   S    
C67   H12   S    
C63   H35   S    
C64   H47   S    
C76   N7    A    
N3    N5    A    
C50   O3    S    
C68   C69   A    
H50   O1    S    
C61   H29   S    
C83   O6    S    
C80   H43   S    
C32   C38   A    
C4    C12   A    
C29   C30   A    
C70   H33   S    
C73   C84   S    
C47   C53   A    
N8    N19   A    
N21   Ni2   S    
N1    N7    A    
N2    N4    A    
C48   H19   S    
C21   C22   A    
C58   H30   S    
C5    N20   A    
H63   N13   S    
C7    C56   A    
C17   H68   S    
C68   H37   S    
C14   O2    S    
C52   H41   S    
C44   C46   A    
C2    H45   S    
C54   C59   S    
C67   N15   A    
C1    C85   A    
C23   C60   S    
C22   C34   S    
C25   H5    S    
C45   H49   S    
C74   C75   A    
C13   C14   A    
C18   H4    S    
C15   N9    S    
C8    C41   S    
H66   O6    S    
C5    C7    A    
N6    N21   A    
C1    O1    S    
C72   C73   A    
C56   H1    S    
N20   Ni3   S    
H51   O2    S    
C55   H27   S    
C69   H38   S    
C25   C26   A    
C82   C83   A    
C58   H31   S    
C13   C24   S    
H58   N11   S    
C60   C61   S    
C51   C53   A    
C35   C36   A    
C1    N1    A    
C43   C44   A    
H57   N11   S    
N8    Ni1   S    
C37   C38   A    
C9    C86   A    
N1    Ni1   S    
C3    N19   A    
C47   C48   A    
C63   C70   A    
N18   Ni1   S    
C11   H2    S    
C28   N3    A    
C50   C51   A    
C36   H14   S    
C65   H36   S    
N6    Ni4   S    
C75   C77   A    
N7    Ni3   S    
C49   H20   S    
C39   C46   A    
C48   C49   A    
C51   H22   S    
C16   C23   A    
C7    C19   S    
C29   H8    S    
H62   N13   S    
C18   C24   A    
N16   Ni4   S    
C27   H7    S    
C61   N14   S    
C42   C43   A    
N4    Ni2   S    
C82   H46   S    
C73   C74   A    
N19   Ni4   S    
C71   C77   A    
C39   H16   S    
C75   C85   S    
C4    H3    S    
N17   Ni2   S    
H54   N10   S    
C15   C17   A    
C66   C77   S    
C54   C55   S    
H53   N9    S    
C76   H48   S    
C47   H18   S    
C79   C84   A    
C28   C34   A    
C16   N2    A    
C34   C52   A    
C6    C59   S    
C2    C8    A    
C80   C81   A    
C10   H69   S    
H52   N9    S    
C57   C61   S    
C57   H28   S    
C40   O5    S    
H59   O3    S    
H55   N10   S    
H65   N14   S    
C32   H13   S    
H60   O4    S    
N15   Ni3   S    
C32   C33   A    
C19   C20   A    
C58   C59   S    
C71   C72   A    
C42   C53   S    
C37   H15   S    
C11   C13   A    
C64   N6    A    
C74   H40   S    
C5    H67   S    
C76   C85   A    
C56   N12   A    
C78   N16   A    
C33   C35   A    
C54   H25   S    
C78   H23   S    
C22   C24   A    
C9    C78   A    
C65   C66   A    
C45   N8    A    
C69   C70   A    
C43   H17   S    
N5    Ni1   S    
C10   C11   A    
C62   O4    S    
C79   C80   A    
N12   Ni2   S    
C20   C21   A    
C8    C67   A    
C12   C44   S    
C49   C50   A    
C4    N21   A    
C38   H10   S    
C14   C15   A    
C71   H39   S    
C86   H34   S    
C28   H21   S    
C55   C60   S    
C35   C46   S    
C52   N5    A    
C20   C31   S    
C57   H32   S    
N15   N18   A    
