data_str_m9_o11_o18_f0_sra.sym.73
_audit_creation_date              2012-12-11T14:21:20-0500
_audit_creation_method            fapswitch 2.2
_symmetry_space_group_name_H-M    P1
_symmetry_Int_Tables_number       1
_space_group_crystal_system       triclinic
_cell_length_a                    21.958235
_cell_length_b                    7.207205
_cell_length_c                    14.916891
_cell_angle_alpha                 89.59909
_cell_angle_beta                  106.74994
_cell_angle_gamma                 89.852543
_cell_volume                      2260.46758664

loop_
_atom_site_label
_atom_site_type_symbol
_atom_type_description
_atom_site_fract_x
_atom_site_fract_y
_atom_site_fract_z
_atom_type_partial_charge
O1    O     O_R   0.584770 0.505770 0.002090 -0.531990
O2    O     O_R   0.415230 0.005770 0.997910 -0.539857
O3    O     O_R   0.467060 0.173340 0.861950 -0.542799
O4    O     O_R   0.532940 0.673340 0.138050 -0.533566
C1    C     C_R   0.454660 0.344995 0.826176 0.752242
C2    C     C_R   0.545256 0.843304 0.173933 0.757246
O5    O     O_R   0.587510 0.175890 0.993210 -0.538493
O6    O     O_R   0.412490 0.675890 0.006790 -0.532681
O7    O     O_R   0.536540 0.008150 0.130100 -0.535400
O8    O     O_R   0.463460 0.508150 0.869900 -0.523078
C3    C     C_R   0.612982 0.344756 0.997539 0.737674
C4    C     C_R   0.387020 0.845054 0.002523 0.745273
O9    O     O_3   0.483140 0.340040 0.044760 -0.382955
O10   O     O_3   0.516860 0.840040 0.955240 -0.380597
V1    V     V_3+5 0.503130 0.064190 0.991700 1.502385
V2    V     V_3+5 0.496870 0.564190 0.008300 1.526872
C5    C     C_2   0.214228 0.727401 0.003932 -0.079707
C6    C     C_2   0.786266 0.227823 0.997281 -0.105459
C7    C     C_2   0.180347 0.886482 0.996381 -0.280085
C8    C     C_2   0.819624 0.387069 0.003616 -0.263337
H1    H     H_    0.201759 0.018780 0.989154 0.132114
H2    H     H_    0.797792 0.519362 0.009823 0.139184
C9    C     C_2   0.282092 0.714671 0.003557 -0.075542
C10   C     C_2   0.718399 0.214497 0.997532 -0.106190
C11   C     C_2   0.319916 0.861619 0.003472 -0.270143
C12   C     C_2   0.680079 0.361175 0.996652 -0.259515
H3    H     H_    0.301853 0.001439 0.003864 0.137979
H4    H     H_    0.697785 0.501019 0.995658 0.149261
C13   C     C_R   0.928615 0.891393 0.723787 -0.051143
C14   C     C_R   0.072110 0.383116 0.275641 -0.047742
C15   C     C_R   0.576941 0.845517 0.274703 -0.086292
C16   C     C_R   0.423449 0.356333 0.725475 -0.082862
C17   C     C_R   0.936674 0.976408 0.571024 -0.146318
C18   C     C_R   0.061156 0.319900 0.429008 -0.147471
C19   C     C_R   0.964982 0.952012 0.666552 -0.161962
C20   C     C_R   0.033629 0.345489 0.333311 -0.168122
C21   C     C_R   0.864488 0.847240 0.684666 -0.125376
C22   C     C_R   0.137740 0.403036 0.314068 -0.131624
C23   C     C_R   0.835516 0.858415 0.586986 0.101729
C24   C     C_R   0.166267 0.394505 0.411772 0.101432
C25   C     C_R   0.871885 0.937621 0.531699 0.127064
C26   C     C_R   0.127163 0.337961 0.468007 0.126893
C27   C     C_R   0.770095 0.812963 0.543916 -0.025732
C28   C     C_R   0.232951 0.422590 0.454453 -0.026079
C29   C     C_R   0.740623 0.872160 0.449314 0.031798
C30   C     C_R   0.260040 0.368427 0.550362 0.032665
C31   C     C_R   0.777116 0.973542 0.402360 -0.077113
C32   C     C_R   0.220140 0.287929 0.598784 -0.078927
C33   C     C_R   0.842167 0.993966 0.440135 -0.190138
C34   C     C_R   0.154693 0.284795 0.560674 -0.193921
C35   C     C_R   0.732201 0.713834 0.590916 0.362483
C36   C     C_R   0.274285 0.499908 0.406069 0.364449
C37   C     C_R   0.666272 0.716152 0.555130 -0.191825
C38   C     C_R   0.339817 0.479097 0.442709 -0.189142
C39   C     C_R   0.636947 0.782069 0.464929 0.029201
C40   C     C_R   0.366492 0.416893 0.534306 0.029867
C41   C     C_R   0.674419 0.838894 0.406636 0.018621
C42   C     C_R   0.327026 0.384400 0.593023 0.019797
C43   C     C_R   0.570517 0.775918 0.430107 -0.127118
C44   C     C_R   0.432770 0.401160 0.569656 -0.126724
C45   C     C_R   0.540690 0.813458 0.336201 -0.233303
C46   C     C_R   0.460811 0.363273 0.664082 -0.233427
C47   C     C_R   0.643893 0.851248 0.308287 0.308085
C48   C     C_R   0.356825 0.375554 0.691516 0.307874
H5    H     H_    0.637864 0.651385 0.595199 0.157674
H6    H     H_    0.370500 0.526172 0.401796 0.156485
H7    H     H_    0.964740 0.033664 0.528542 0.111567
H8    H     H_    0.031102 0.280506 0.472189 0.112755
H9    H     H_    0.755718 0.045973 0.337430 0.185113
H10   H     H_    0.238880 0.218709 0.665351 0.183439
O11   O     O_R   0.036450 0.233070 0.130130 -0.538781
O12   O     O_R   0.963550 0.733070 0.869870 -0.532239
O13   O     O_R   0.912470 0.560570 0.006790 -0.542281
O14   O     O_R   0.087530 0.060570 0.993210 -0.545545
C49   C     C_R   0.886970 0.392086 0.002546 0.743968
C50   C     C_R   0.113031 0.891777 0.997484 0.741599
O15   O     O_R   0.032920 0.562940 0.138050 -0.532859
O16   O     O_R   0.967080 0.062940 0.861950 -0.537204
O17   O     O_R   0.084790 0.730500 0.002090 -0.537085
O18   O     O_R   0.915210 0.230500 0.997910 -0.539915
C51   C     C_R   0.044630 0.393678 0.174354 0.688890
C52   C     C_R   0.955349 0.895270 0.825488 0.688075
O19   O     O_3   0.016820 0.396170 0.955260 -0.379894
O20   O     O_3   0.983180 0.896170 0.044740 -0.380927
V3    V     V_3+5 0.996880 0.672090 0.008300 1.476447
V4    V     V_3+5 0.003120 0.172090 0.991700 1.460857
H11   H     H_    0.191324 0.596521 0.010125 0.144875
H12   H     H_    0.809647 0.097007 0.992198 0.144143
H13   H     H_    0.014450 0.988987 0.696561 0.111464
H14   H     H_    0.982774 0.328554 0.303743 0.111286
H15   H     H_    0.837008 0.822496 0.732766 0.165558
H16   H     H_    0.165731 0.411315 0.265652 0.165185
Cl1   Cl    Cl    0.762731 0.555108 0.684050 -0.687451
Cl2   Cl    Cl    0.249771 0.653910 0.309479 -0.688802
H17   H     H_    0.541661 0.736701 0.475108 0.124686
H18   H     H_    0.463010 0.421115 0.524384 0.124491
H19   H     H_    0.301444 0.575715 0.004073 0.159257
H20   H     H_    0.699496 0.075458 0.997799 0.160484
H21   H     H_    0.868596 0.066991 0.399720 0.128253
H22   H     H_    0.125762 0.228314 0.602133 0.126480
Cl3   Cl    Cl    0.686416 0.822696 0.224257 -0.701767
Cl4   Cl    Cl    0.315643 0.432850 0.774282 -0.701125
H23   H     H_    0.489361 0.803935 0.310082 0.128203
H24   H     H_    0.512123 0.352038 0.690399 0.126208

loop_
_geom_bond_atom_site_label_1
_geom_bond_atom_site_label_2
_ccdc_geom_bond_type
C39   C43   A    
C15   C45   A    
C18   C26   A    
C50   O17   A    
C47   Cl3   S    
O2    C4    A    
C2    O7    A    
O12   V3    S    
C23   C25   A    
C48   Cl4   S    
C29   C41   A    
C5    C9    S    
O14   C50   A    
C6    C10   S    
C7    C50   S    
C7    H1    S    
C10   C12   D    
C1    O8    A    
C22   H16   S    
C14   C22   A    
C44   C46   A    
C29   C31   A    
C31   H9    S    
O18   V4    S    
C17   C19   A    
C28   C30   A    
O1    C3    A    
C36   Cl2   S    
C37   H5    S    
C49   O18   A    
C18   C20   A    
C1    C16   S    
O16   V4    S    
C32   C34   A    
C2    C15   S    
O15   V3    S    
O6    V2    S    
C30   C42   A    
O13   C49   A    
C43   H17   S    
C25   C33   A    
C36   C38   A    
C41   C47   A    
C46   H24   S    
C37   C39   A    
C42   C48   A    
C38   C40   A    
C43   C45   A    
C21   H15   S    
C15   C47   A    
O20   V3    S    
C16   C48   A    
O4    C2    A    
C18   H8    S    
C23   C27   A    
O5    V1    S    
C3    C12   S    
C6    H12   S    
C40   C44   A    
C8    C49   S    
C35   C37   A    
O4    V2    S    
O5    C3    A    
C33   H21   S    
O11   V4    S    
O16   C52   A    
O15   C51   A    
O6    C4    A    
O1    V2    S    
O14   V4    S    
O2    V1    S    
C27   C29   A    
O13   V3    S    
C26   C34   A    
C19   H13   S    
C9    H19   S    
C8    H2    S    
C39   C41   A    
C10   H20   S    
C44   H18   S    
O17   V3    S    
O3    V1    S    
C17   H7    S    
C20   H14   S    
C45   H23   S    
C5    H11   S    
C34   H22   S    
C32   H10   S    
O3    C1    A    
C38   H6    S    
C11   H3    S    
C13   C19   A    
C12   H4    S    
C35   Cl1   S    
C14   C20   A    
C4    C11   S    
C17   C25   A    
C14   C51   S    
O7    V1    S    
C16   C46   A    
C13   C52   S    
C21   C23   A    
O8    V2    S    
C31   C33   A    
C22   C24   A    
C28   C36   A    
C27   C35   A    
C24   C26   A    
C5    C7    D    
C40   C42   A    
C6    C8    D    
C9    C11   D    
C30   C32   A    
C24   C28   A    
O19   V4    S    
O9    V2    S    
C13   C21   A    
O10   V1    S    
O12   C52   A    
O11   C51   A    
