data_str_m2_o10_o18_f0_pcu.sym.31
_audit_creation_date              2012-10-26T19:59:11-0400
_audit_creation_method            fapswitch 2.2
_symmetry_space_group_name_H-M    P1
_symmetry_Int_Tables_number       1
_space_group_crystal_system       triclinic
_cell_length_a                    7.43416
_cell_length_b                    8.694311
_cell_length_c                    15.805623
_cell_angle_alpha                 94.260147
_cell_angle_beta                  75.015009
_cell_angle_gamma                 103.14737
_cell_volume                      960.856895315

loop_
_atom_site_label
_atom_site_type_symbol
_atom_type_description
_atom_site_fract_x
_atom_site_fract_y
_atom_site_fract_z
_atom_type_partial_charge
C1    C     C_R   0.545073 0.800157 0.502610 0.551573
C2    C     C_R   0.616102 0.511144 0.333591 0.550478
C3    C     C_R   0.313035 0.463471 0.761163 -0.040783
C4    C     C_R   0.687131 0.523967 0.237920 -0.038376
C5    C     C_R   0.076994 0.331001 0.885471 0.231458
C6    C     C_R   0.936843 0.620091 0.108633 0.234019
C7    C     C_R   0.129761 0.376497 0.797444 -0.141620
C8    C     C_R   0.877778 0.590472 0.198927 -0.137447
C9    C     C_R   0.441301 0.512043 0.813621 -0.146084
C10   C     C_R   0.557038 0.478209 0.186022 -0.151887
C11   C     C_R   0.397695 0.463305 0.900742 0.005465
C12   C     C_R   0.454910 0.199843 0.497412 0.551327
C13   C     C_R   0.611336 0.501206 0.095122 -0.000423
C14   C     C_R   0.211763 0.372629 0.936690 0.107873
C15   C     C_R   0.802581 0.578456 0.057198 0.106763
C16   C     C_R   0.534371 0.500511 0.952486 0.048968
C17   C     C_R   0.478625 0.455190 0.041805 0.049100
C18   C     C_R   0.293187 0.362755 0.074506 -0.136997
C19   C     C_R   0.726214 0.578009 0.917376 -0.138696
C20   C     C_R   0.163496 0.322695 0.023087 -0.068998
C21   C     C_R   0.856812 0.614771 0.968464 -0.069285
C22   C     C_2   0.570471 0.968032 0.503883 -0.154568
C23   C     C_2   0.429488 0.031969 0.496169 -0.154449
C24   C     C_R   0.383821 0.487570 0.666306 0.549897
Cu1   Cu    Cu3+1 0.322120 0.483240 0.490330 0.950905
Cu2   Cu    Cu3+1 0.677880 0.516760 0.509670 0.951970
H1    H     H_    0.023677 0.251706 0.051934 0.172816
H2    H     H_    0.293591 0.960634 0.488887 0.134175
H3    H     H_    0.003924 0.615143 0.568886 0.239051
H4    H     H_    0.996078 0.384861 0.431111 0.238576
H5    H     H_    0.819838 0.227112 0.878036 0.327470
H6    H     H_    0.198418 0.711163 0.114568 0.326933
H7    H     H_    0.001967 0.672893 0.937556 0.172174
H8    H     H_    0.411157 0.430675 0.219139 0.130714
H9    H     H_    0.576249 0.586581 0.783577 0.128949
H10   H     H_    0.978716 0.625432 0.239146 0.119595
H11   H     H_    0.030394 0.339057 0.756619 0.120535
H12   H     H_    0.244123 0.314677 0.139328 0.101561
H13   H     H_    0.783576 0.608714 0.849549 0.100839
H14   H     H_    0.706366 0.039368 0.511169 0.134052
N1    N     N_2   0.945180 0.542040 0.524240 -0.258213
N2    N     N_2   0.054820 0.457960 0.475760 -0.258639
O1    O     O_R   0.384450 0.714270 0.493720 -0.503060
O2    O     O_3   0.123307 0.692169 0.069843 -0.714840
O3    O     O_R   0.615550 0.285730 0.506280 -0.503238
O4    O     O_R   0.684880 0.742590 0.510050 -0.496665
O5    O     O_R   0.315120 0.257410 0.489950 -0.496946
O6    O     O_R   0.265540 0.477900 0.617090 -0.504930
O7    O     O_R   0.734460 0.522100 0.382910 -0.504908
O8    O     O_R   0.565970 0.506210 0.633420 -0.500616
O9    O     O_R   0.434030 0.493790 0.366580 -0.502398
O10   O     O_3   0.896615 0.243372 0.922047 -0.713171

loop_
_geom_bond_atom_site_label_1
_geom_bond_atom_site_label_2
_ccdc_geom_bond_type
Cu1   N2    S    
C2    C4    S    
Cu1   O9    S    
C5    O10   S    
C3    C9    A    
C2    O7    A    
N1    N2    D    
Cu1   O5    S    
C18   C20   A    
Cu1   O6    S    
C13   C17   A    
H5    O10   S    
C4    C8    A    
C22   H14   S    
Cu1   O1    S    
C13   C15   A    
C17   C18   A    
C18   H12   S    
H3    N1    S    
C1    C22   S    
C10   H8    S    
Cu1   Cu2   S    
C6    O2    S    
C23   H2    S    
C9    C11   A    
C12   C23   S    
C5    C14   A    
C19   H13   S    
C12   O5    A    
C20   H1    S    
C3    C7    A    
Cu2   O8    S    
C24   O8    A    
C11   C14   A    
C1    O4    A    
C11   C16   A    
C21   H7    S    
C2    O9    A    
Cu2   O4    S    
C4    C10   A    
C12   O3    A    
C24   O6    A    
C14   C20   A    
C15   C21   A    
H6    O2    S    
C5    C7    A    
C8    H10   S    
Cu2   O7    S    
C9    H9    S    
C22   C23   D    
H4    N2    S    
C6    C8    A    
Cu2   O3    S    
C19   C21   A    
C6    C15   A    
C1    O1    A    
Cu2   N1    S    
C3    C24   S    
C16   C17   A    
C7    H11   S    
C10   C13   A    
C16   C19   A    
