data_str_m3_o1_o9_f0_pcu.sym.53
_audit_creation_date              2012-12-10T19:00:00-0500
_audit_creation_method            fapswitch 2.2
_symmetry_space_group_name_H-M    P1
_symmetry_Int_Tables_number       1
_space_group_crystal_system       triclinic
_cell_length_a                    10.726703
_cell_length_b                    10.676246
_cell_length_c                    9.818655
_cell_angle_alpha                 89.864561
_cell_angle_beta                  90.243637
_cell_angle_gamma                 90.127445
_cell_volume                      1124.42533961

loop_
_atom_site_label
_atom_site_type_symbol
_atom_type_description
_atom_site_fract_x
_atom_site_fract_y
_atom_site_fract_z
_atom_type_partial_charge
C1    C     C_R   0.499955 0.259890 0.500046 0.861398
C2    C     C_R   0.451757 0.063808 0.612451 -0.193643
C3    C     C_R   0.499930 0.872459 0.499868 0.008209
C4    C     C_R   0.500064 0.127541 0.500129 0.008238
C5    C     C_R   0.439209 0.591488 0.071478 -0.066772
C6    C     C_R   0.560789 0.408511 0.928522 -0.066764
C7    C     C_R   0.439143 0.591430 0.927464 -0.081939
C8    C     C_R   0.560854 0.408567 0.072536 -0.081852
C9    C     C_R   0.259983 0.496400 0.499496 0.877217
C10   C     C_R   0.740018 0.503595 0.500505 0.877225
C11   C     C_R   0.174038 0.396625 0.026232 -0.208903
C12   C     C_R   0.500044 0.740110 0.499954 0.861423
C13   C     C_R   0.825941 0.603281 0.973778 -0.208989
C14   C     C_R   0.116557 0.450669 0.138800 -0.162367
C15   C     C_R   0.883386 0.549232 0.861190 -0.162307
C16   C     C_R   0.119213 0.389652 0.265238 0.061850
C17   C     C_R   0.880793 0.610302 0.734782 0.061892
C18   C     C_R   0.179066 0.273449 0.277630 -0.193194
C19   C     C_R   0.821034 0.726556 0.722436 -0.193329
C20   C     C_R   0.237629 0.217580 0.165786 0.619310
C21   C     C_R   0.762500 0.782422 0.834299 0.619269
C22   C     C_R   0.234007 0.281091 0.038500 -0.233050
C23   C     C_R   0.872533 0.506040 0.501327 -0.083160
C24   C     C_R   0.766074 0.718871 0.961559 -0.232977
C25   C     C_R   0.932550 0.456025 0.387892 -0.257706
C26   C     C_R   0.067450 0.543950 0.612115 -0.257710
C27   C     C_3   0.371447 0.061522 0.083519 -0.375844
C28   C     C_3   0.628439 0.938324 0.916436 -0.375579
C29   C     C_R   0.127468 0.493940 0.498677 -0.083169
C30   C     C_R   0.939723 0.551549 0.614609 0.029765
C31   C     C_R   0.060279 0.448421 0.385400 0.029787
C32   C     C_R   0.548375 0.064538 0.387725 -0.130625
C33   C     C_R   0.451617 0.935461 0.612270 -0.130950
C34   C     C_R   0.548234 0.936192 0.387544 -0.193572
H1    H     H_    0.275986 0.242869 0.947803 0.131687
H2    H     H_    0.819498 0.773999 0.624727 0.133345
H3    H     H_    0.879826 0.419000 0.302333 0.158830
H4    H     H_    0.120173 0.580975 0.697674 0.158843
H5    H     H_    0.586889 0.114267 0.301147 0.134770
H6    H     H_    0.413098 0.885733 0.698846 0.134712
H7    H     H_    0.586705 0.887058 0.300890 0.132487
H8    H     H_    0.413284 0.112942 0.699103 0.132504
H9    H     H_    0.390365 0.664402 0.125686 0.130475
H10   H     H_    0.609633 0.335596 0.874314 0.130501
H11   H     H_    0.317910 0.036960 0.990130 0.163019
H12   H     H_    0.724147 0.757118 0.052273 0.131721
H13   H     H_    0.419784 0.975202 0.117529 0.193888
H14   H     H_    0.444350 0.133259 0.062500 0.151842
H15   H     H_    0.681673 0.962902 0.010047 0.162923
H16   H     H_    0.555577 0.866445 0.937137 0.151784
H17   H     H_    0.580051 0.024593 0.882359 0.193840
H18   H     H_    0.390315 0.664343 0.872406 0.117430
H19   H     H_    0.609679 0.335653 0.127593 0.117474
H20   H     H_    0.172248 0.444508 0.928922 0.159466
H21   H     H_    0.827693 0.555365 0.071069 0.159461
H22   H     H_    0.071283 0.540727 0.127978 0.145833
H23   H     H_    0.928594 0.459137 0.871977 0.145824
H24   H     H_    0.180661 0.226053 0.375365 0.133301
N1    N     N_R   0.499970 0.499970 0.857200 -0.074473
N2    N     N_R   0.500030 0.500030 0.142800 -0.074483
O1    O     O_R   0.499990 0.316750 0.614620 -0.632447
O2    O     O_3   0.709264 0.899872 0.811839 -0.604007
O3    O     O_R   0.500010 0.683250 0.385380 -0.632441
O4    O     O_R   0.499990 0.316780 0.385290 -0.622990
O5    O     O_R   0.500010 0.683220 0.614710 -0.623038
O6    O     O_R   0.316760 0.500000 0.614660 -0.632928
O7    O     O_R   0.683240 0.500000 0.385340 -0.632940
O8    O     O_R   0.316760 0.500020 0.385330 -0.604019
O9    O     O_R   0.683240 0.499980 0.614670 -0.604016
O10   O     O_3   0.291017 0.100210 0.188335 -0.604046
Zn1   Zn    Zn3+2 0.500000 0.499980 0.653120 0.947330
Zn2   Zn    Zn3+2 0.500000 0.500020 0.346880 0.947353

loop_
_geom_bond_atom_site_label_1
_geom_bond_atom_site_label_2
_ccdc_geom_bond_type
C8    H19   S    
C27   H14   S    
C14   H22   S    
C23   C30   A    
C25   C31   A    
C22   H1    S    
C10   C23   S    
C5    C7    A    
C28   H15   S    
C11   C22   A    
C2    C4    A    
O6    Zn1   S    
C3    C34   A    
C9    C29   S    
O8    Zn2   S    
C1    C4    S    
C24   H12   S    
N1    Zn1   S    
O1    Zn1   S    
C23   C25   A    
C5    H9    S    
C9    O8    A    
C29   C31   A    
C16   C18   A    
C6    H10   S    
C10   O7    A    
C8    N2    A    
C16   C31   S    
C17   C30   S    
C15   H23   S    
C32   C34   A    
C27   H11   S    
C21   O2    S    
C4    C32   A    
C27   O10   S    
C2    H8    S    
C2    C33   A    
C11   H20   S    
C17   C19   A    
C20   C22   A    
C7    H18   S    
C26   C30   A    
C18   C20   A    
C19   H2    S    
C13   C15   A    
C13   C24   A    
C11   C14   A    
C14   C16   A    
C21   C24   A    
C33   H6    S    
C13   H21   S    
C3    C33   A    
C27   H13   S    
C1    O4    A    
O5    Zn1   S    
O3    Zn2   S    
C20   O10   S    
C26   C29   A    
O9    Zn1   S    
O7    Zn2   S    
C12   O5    A    
C32   H5    S    
C7    N1    A    
C15   C17   A    
C12   O3    A    
N2    Zn2   S    
C10   O9    A    
C26   H4    S    
C6    C8    A    
C3    C12   S    
C5    N2    A    
C25   H3    S    
C28   H17   S    
C9    O6    A    
C28   H16   S    
C6    N1    A    
C18   H24   S    
O4    Zn2   S    
C1    O1    A    
C19   C21   A    
C34   H7    S    
C28   O2    S    
