data_str_m9_o13_o16_f0_sra.sym.66
_audit_creation_date              2012-12-11T14:43:36-0500
_audit_creation_method            fapswitch 2.2
_symmetry_space_group_name_H-M    P1
_symmetry_Int_Tables_number       1
_space_group_crystal_system       triclinic
_cell_length_a                    20.86458
_cell_length_b                    7.098541
_cell_length_c                    16.375498
_cell_angle_alpha                 89.99976
_cell_angle_beta                  92.726647
_cell_angle_gamma                 90.000449
_cell_volume                      2422.59768029

loop_
_atom_site_label
_atom_site_type_symbol
_atom_type_description
_atom_site_fract_x
_atom_site_fract_y
_atom_site_fract_z
_atom_type_partial_charge
O1    O     O_R   0.564840 0.505290 0.579830 -0.539323
O2    O     O_R   0.435160 0.005290 0.420170 -0.539324
O3    O     O_R   0.556720 0.179930 0.409350 -0.541413
O4    O     O_R   0.443280 0.679930 0.590650 -0.541407
C1    C     C_R   0.570345 0.344854 0.381093 0.776425
C2    C     C_R   0.429654 0.844852 0.618907 0.776422
O5    O     O_R   0.572280 0.175810 0.578530 -0.534975
O6    O     O_R   0.427720 0.675810 0.421470 -0.534969
O7    O     O_R   0.450830 0.001920 0.590540 -0.533504
O8    O     O_R   0.549170 0.501920 0.409460 -0.533497
C3    C     C_R   0.589895 0.345517 0.605185 0.689107
C4    C     C_R   0.410105 0.845516 0.394815 0.689107
O9    O     O_3   0.460130 0.338030 0.503750 -0.376871
O10   O     O_3   0.539870 0.838030 0.496250 -0.376873
V1    V     V_3+5 0.507400 0.064560 0.499310 1.474624
V2    V     V_3+5 0.492600 0.564560 0.500690 1.474647
C5    C     C_R   0.141762 0.899070 0.170288 -0.169670
C6    C     C_R   0.858238 0.399067 0.829712 -0.169674
C7    C     C_R   0.357377 0.866588 0.330956 -0.061576
C8    C     C_R   0.642623 0.366591 0.669043 -0.061588
C9    C     C_R   0.310552 0.052053 0.217092 -0.138947
C10   C     C_R   0.689453 0.552065 0.782900 -0.138953
C11   C     C_R   0.362141 0.009163 0.271628 -0.132469
C12   C     C_R   0.637863 0.509174 0.728366 -0.132472
C13   C     C_R   0.299683 0.765180 0.333880 -0.192777
C14   C     C_R   0.700314 0.265176 0.666125 -0.192780
C15   C     C_R   0.246978 0.810143 0.279893 0.065911
C16   C     C_R   0.753021 0.310139 0.720109 0.065914
C17   C     C_R   0.252322 0.955177 0.221125 0.125810
C18   C     C_R   0.747680 0.455181 0.778872 0.125807
C19   C     C_R   0.199637 0.999730 0.167062 -0.249977
C20   C     C_R   0.800366 0.499734 0.832934 -0.249990
C21   C     C_R   0.136751 0.757633 0.230391 0.593082
C22   C     C_R   0.863246 0.257624 0.769614 0.593087
C23   C     C_R   0.188633 0.714338 0.284415 -0.247898
C24   C     C_R   0.811363 0.214328 0.715592 -0.247902
H1    H     H_    0.204474 0.107027 0.120644 0.174286
H2    H     H_    0.795532 0.607039 0.879346 0.174309
H3    H     H_    0.315954 0.163157 0.172562 0.137592
H4    H     H_    0.684053 0.663176 0.827425 0.137593
H5    H     H_    0.183252 0.604189 0.329400 0.147178
H6    H     H_    0.816741 0.104172 0.670611 0.147178
C25   C     C_R   0.382117 0.858812 0.837556 -0.187023
C26   C     C_R   0.617881 0.358935 0.162446 -0.187027
H7    H     H_    0.406063 0.855824 0.897760 0.153793
H8    H     H_    0.593934 0.356006 0.102243 0.153794
C27   C     C_R   0.389815 0.853752 0.690741 -0.165762
C28   C     C_R   0.610185 0.353764 0.309259 -0.165761
C29   C     C_R   0.079210 0.912676 0.732937 -0.163920
C30   C     C_R   0.920791 0.412590 0.267062 -0.163901
C31   C     C_R   0.113555 0.904797 0.662496 -0.108399
C32   C     C_R   0.886447 0.404672 0.337502 -0.108398
C33   C     C_R   0.180202 0.892575 0.667343 -0.121371
C34   C     C_R   0.819799 0.392482 0.332655 -0.121375
C35   C     C_R   0.214824 0.887786 0.743768 0.035880
C36   C     C_R   0.785176 0.387767 0.256232 0.035876
C37   C     C_R   0.179212 0.896054 0.816623 -0.053062
C38   C     C_R   0.820788 0.396078 0.183377 -0.053059
C39   C     C_R   0.283568 0.875027 0.750024 0.084123
C40   C     C_R   0.716431 0.375038 0.249976 0.084127
C41   C     C_R   0.314975 0.871076 0.828855 -0.048530
C42   C     C_R   0.685023 0.371162 0.171146 -0.048528
C43   C     C_R   0.279468 0.879272 0.898882 -0.213022
C44   C     C_R   0.720530 0.379399 0.101120 -0.213023
C45   C     C_R   0.212948 0.891370 0.893445 0.550645
C46   C     C_R   0.787051 0.391466 0.106557 0.550648
C47   C     C_R   0.322609 0.865977 0.681085 -0.289749
C48   C     C_R   0.677391 0.365949 0.318914 -0.289756
C49   C     C_R   0.419218 0.850272 0.769181 0.610951
C50   C     C_R   0.580781 0.350361 0.230821 0.610951
C51   C     C_R   0.110802 0.908652 0.810096 -0.090024
C52   C     C_R   0.889198 0.408640 0.189903 -0.090018
H9    H     H_    0.302623 0.868127 0.619210 0.114442
H10   H     H_    0.697378 0.368044 0.380788 0.114444
H11   H     H_    0.027339 0.921962 0.727217 0.162761
H12   H     H_    0.972663 0.421843 0.272781 0.162736
H13   H     H_    0.203110 0.887102 0.609867 0.106069
H14   H     H_    0.796892 0.386972 0.390131 0.106071
H15   H     H_    0.088201 0.908149 0.603263 0.129137
H16   H     H_    0.911802 0.407965 0.396734 0.129137
O11   O     O_R   0.950790 0.256670 0.090520 -0.541996
O12   O     O_R   0.049210 0.756670 0.909480 -0.541977
O13   O     O_R   0.927720 0.590370 0.921470 -0.547863
O14   O     O_R   0.072280 0.090370 0.078530 -0.547878
C53   C     C_R   0.910711 0.420313 0.894050 0.837515
C54   C     C_R   0.089289 0.920314 0.105950 0.837515
O15   O     O_R   0.943270 0.586180 0.090640 -0.529505
O16   O     O_R   0.056730 0.086180 0.909360 -0.529525
O17   O     O_R   0.064850 0.759970 0.079840 -0.507372
O18   O     O_R   0.935150 0.259970 0.920160 -0.507383
C55   C     C_R   0.929991 0.417592 0.118612 0.826773
C56   C     C_R   0.070009 0.917594 0.881388 0.826767
O19   O     O_3   0.039850 0.428050 0.996240 -0.382632
O20   O     O_3   0.960150 0.928050 0.003760 -0.382633
V3    V     V_3+5 0.992610 0.701540 0.000700 1.572424
V4    V     V_3+5 0.007390 0.201540 0.999300 1.572375
F1    F     F_    0.182334 0.898210 0.964584 -0.731782
F2    F     F_    0.817665 0.398349 0.035418 -0.731791
F3    F     F_    0.081367 0.659214 0.236511 -0.713339
F4    F     F_    0.918627 0.159198 0.763497 -0.713349
H17   H     H_    0.405945 0.090198 0.268263 0.176567
H18   H     H_    0.594060 0.590215 0.731727 0.176591
H19   H     H_    0.294942 0.657431 0.380121 0.113404
H20   H     H_    0.705052 0.157421 0.619887 0.113408
F5    F     F_    0.484052 0.838524 0.779530 -0.703970
F6    F     F_    0.515946 0.338657 0.220472 -0.703963
H21   H     H_    0.303556 0.876173 0.959028 0.160247
H22   H     H_    0.696441 0.376356 0.040975 0.160245

loop_
_geom_bond_atom_site_label_1
_geom_bond_atom_site_label_2
_ccdc_geom_bond_type
C43   C45   A    
O4    V2    S    
O15   C55   A    
C15   C17   A    
C24   H6    S    
O1    C3    A    
O2    C4    A    
C2    O7    A    
O16   V4    S    
O5    C3    A    
O14   C54   A    
C35   C39   A    
C48   H10   S    
O12   C56   A    
C40   C42   A    
O14   V4    S    
C41   C43   A    
C30   C52   A    
C27   C49   A    
C42   C44   A    
C39   C47   A    
C38   C46   A    
C51   C56   S    
O16   C56   A    
C32   C34   A    
C29   C31   A    
O15   V3    S    
C22   F4    S    
C29   H11   S    
C26   C50   A    
C47   H9    S    
C20   H2    S    
C12   H18   S    
C14   H20   S    
O6    V2    S    
O5    V1    S    
O13   V3    S    
O19   V3    S    
C5    C21   A    
C23   H5    S    
C27   C47   A    
C26   H8    S    
C44   H22   S    
C33   C35   A    
C1    C28   S    
C34   C36   A    
C3    C8    S    
C39   C41   A    
C6    C53   S    
C2    C27   S    
C5    C54   S    
C8    C12   A    
O4    C2    A    
C50   F6    S    
C37   C45   A    
O11   V4    S    
C49   F5    S    
C7    C11   A    
C13   H19   S    
C15   C23   A    
C9    C17   A    
C37   C51   A    
C36   C40   A    
C21   F3    S    
C44   C46   A    
O17   V3    S    
C33   H13   S    
C30   H12   S    
C6    C22   A    
C30   C32   A    
C9    H3    S    
O6    C4    A    
C10   H4    S    
O1    V2    S    
C28   C48   A    
O20   V4    S    
O2    V1    S    
C25   H7    S    
C40   C48   A    
O13   C53   A    
O19   V4    S    
C35   C37   A    
C5    C19   A    
C10   C12   A    
C6    C20   A    
C43   H21   S    
O3    V1    S    
C25   C41   A    
C52   C55   S    
O12   V3    S    
C10   C18   A    
C28   C50   A    
O3    C1    A    
C54   O17   A    
C53   O18   A    
O18   V4    S    
C13   C15   A    
C14   C16   A    
C26   C42   A    
C46   F2    S    
C9    C11   A    
O7    V1    S    
C45   F1    S    
C1    O8    A    
C17   C19   A    
O8    V2    S    
C18   C20   A    
C38   C52   A    
C11   H17   S    
C8    C14   A    
C4    C7    S    
C16   C18   A    
C21   C23   A    
C36   C38   A    
C22   C24   A    
O20   V3    S    
C7    C13   A    
C31   H15   S    
O11   C55   A    
C19   H1    S    
C16   C24   A    
C25   C49   A    
C29   C51   A    
O9    V2    S    
O10   V1    S    
C31   C33   A    
C32   H16   S    
C34   H14   S    
