data_str_m9_o4_o2_f0_sra.sym.77
_audit_creation_date              2013-03-05T16:08:14-0500
_audit_creation_method            fapswitch 2.2
_symmetry_space_group_name_H-M    P1
_symmetry_Int_Tables_number       1
_space_group_crystal_system       triclinic
_cell_length_a                    6.944328
_cell_length_b                    14.659646
_cell_length_c                    15.995104
_cell_angle_alpha                 89.965978
_cell_angle_beta                  89.978674
_cell_angle_gamma                 90.261066
_cell_volume                      1628.30651883

loop_
_atom_site_label
_atom_site_type_symbol
_atom_site_description
_atom_site_fract_x
_atom_site_fract_y
_atom_site_fract_z
_atom_type_partial_charge
O1    O     O_R   0.505720 0.583900 0.413310 -0.592455
O2    O     O_R   0.175940 0.594920 0.586080 -0.608581
O3    O     O_R   0.005640 0.416100 0.586690 -0.587873
C1    C     C_R   0.344953 0.615443 0.615663 0.959692
O4    O     O_R   0.176000 0.594930 0.413930 -0.600848
O5    O     O_R   0.005700 0.416110 0.413310 -0.592956
C2    C     C_R   0.345058 0.616944 0.385304 0.965406
O6    O     O_R   0.505660 0.583890 0.586690 -0.589747
O7    O     O_3   0.339200 0.441330 0.500000 -0.273597
V1    V     V_3+5 0.064350 0.510880 0.500000 1.150043
O8    O     O_R   0.675980 0.405080 0.413920 -0.601202
C3    C     C_R   0.844966 0.383044 0.385057 0.931246
O9    O     O_R   0.675920 0.405070 0.586070 -0.596647
C4    C     C_R   0.844359 0.383954 0.615196 0.938936
V2    V     V_3+5 0.564340 0.489120 0.500000 1.154331
O10   O     O_3   0.839360 0.558670 0.500000 -0.276983
H1    H     H_    0.563547 0.098134 0.518769 0.144590
C5    C     C_R   0.993480 0.430626 0.778300 -0.183470
C6    C     C_R   0.063407 0.456103 0.856441 -0.114689
C7    C     C_R   0.071861 0.392603 0.920698 -0.122035
C8    C     C_R   0.011717 0.303059 0.907073 -0.165772
C9    C     C_R   0.942967 0.274372 0.827729 0.136491
C10   C     C_R   0.932008 0.339954 0.762298 0.120090
C11   C     C_R   0.882935 0.182678 0.813727 -0.307515
C12   C     C_R   0.810401 0.156492 0.732943 0.014853
C13   C     C_R   0.786702 0.225093 0.670056 0.138057
C14   C     C_R   0.853860 0.315350 0.683665 -0.311302
C15   C     C_R   0.760791 0.064300 0.710908 -0.062311
C16   C     C_R   0.662865 0.046101 0.635867 -0.082213
C17   C     C_R   0.632276 0.114128 0.577786 -0.153172
C18   C     C_R   0.700128 0.201382 0.592797 -0.160600
H2    H     H_    0.985785 0.483440 0.731247 0.120635
H3    H     H_    0.109166 0.525797 0.867386 0.120649
H4    H     H_    0.124303 0.412899 0.981683 0.109575
H5    H     H_    0.018893 0.257254 0.959941 0.103217
H6    H     H_    0.620248 0.977241 0.619263 0.162677
H7    H     H_    0.682891 0.249473 0.542281 0.127775
C19   C     C_R   0.729849 0.181524 0.243120 0.234515
C20   C     C_R   0.882368 0.182395 0.185634 -0.230031
C21   C     C_R   0.032876 0.245211 0.200079 -0.156569
H8    H     H_    0.154504 0.248140 0.157975 0.128966
C22   C     C_R   0.021468 0.309361 0.265556 -0.144171
H9    H     H_    0.135255 0.359480 0.271995 0.126577
C23   C     C_R   0.858962 0.312864 0.318445 -0.228285
C24   C     C_R   0.718227 0.245144 0.307681 0.160747
C25   C     C_3   0.505792 0.254084 0.297969 -0.480782
C26   C     C_3   0.518318 0.184367 0.227873 -0.463574
H10   H     H_    0.464425 0.323187 0.276018 0.186235
H11   H     H_    0.426095 0.228647 0.353644 0.210025
H12   H     H_    0.483426 0.212762 0.165277 0.183429
H13   H     H_    0.446502 0.118508 0.243190 0.222167
C27   C     C_R   0.511373 0.688066 0.738750 0.202034
C28   C     C_R   0.355009 0.682413 0.684224 -0.255564
C29   C     C_R   0.203659 0.744317 0.699438 -0.160786
H14   H     H_    0.077210 0.744430 0.659858 0.155375
C30   C     C_R   0.214517 0.807584 0.766137 -0.181508
H15   H     H_    0.095705 0.852631 0.775679 0.164291
C31   C     C_R   0.376591 0.812151 0.819580 -0.219431
C32   C     C_R   0.520970 0.748812 0.803163 0.281592
C33   C     C_3   0.703028 0.709576 0.836588 -0.481113
C34   C     C_3   0.691992 0.640988 0.763656 -0.515300
H16   H     H_    0.682283 0.677322 0.898890 0.167757
H17   H     H_    0.826587 0.757583 0.832220 0.231892
H18   H     H_    0.664912 0.569670 0.784367 0.189199
H19   H     H_    0.808234 0.649647 0.716560 0.208416
C35   C     C_R   0.472623 0.672514 0.247154 0.156853
C36   C     C_R   0.352618 0.684297 0.316468 -0.247246
C37   C     C_R   0.228178 0.759891 0.315558 -0.271558
H20   H     H_    0.128964 0.769949 0.367015 0.166277
C38   C     C_R   0.238743 0.826571 0.251555 0.377903
C39   C     C_R   0.373124 0.816651 0.184748 -0.369539
C40   C     C_R   0.481479 0.736198 0.182962 0.119207
C41   C     C_3   0.691757 0.720569 0.170066 -0.424778
C42   C     C_3   0.681851 0.651150 0.240861 -0.469357
H21   H     H_    0.780546 0.781269 0.185535 0.245890
H22   H     H_    0.722579 0.689261 0.108239 0.170359
H23   H     H_    0.764199 0.672338 0.297293 0.213941
H24   H     H_    0.707329 0.579995 0.219734 0.173618
O11   O     O_R   0.229140 0.916090 0.913340 -0.615420
O12   O     O_R   0.558860 0.905090 0.086080 -0.583208
O13   O     O_R   0.729100 0.083920 0.086690 -0.597596
C43   C     C_R   0.389364 0.884799 0.116304 0.977901
O14   O     O_R   0.558860 0.905090 0.913930 -0.575183
O15   O     O_R   0.729100 0.083920 0.913310 -0.587666
C44   C     C_R   0.389324 0.881057 0.887014 0.954700
O16   O     O_R   0.229140 0.916080 0.086720 -0.558444
O17   O     O_3   0.395570 0.058660 0.000020 -0.286790
V3    V     V_3+5 0.670450 0.989140 0.000000 1.197620
O18   O     O_R   0.058810 0.094980 0.913910 -0.600625
C45   C     C_R   0.890145 0.116991 0.885115 0.897237
O19   O     O_R   0.058810 0.094980 0.086060 -0.590130
C46   C     C_R   0.890109 0.117069 0.114851 1.004371
V4    V     V_3+5 0.170450 0.010950 0.999970 1.186863
O20   O     O_3   0.895460 0.941370 0.999990 -0.263979
N1    N     N_R   0.128466 0.908332 0.261130 0.220733
O21   O     O_R   0.149546 0.957286 0.328326 -0.421213
O22   O     O_R   0.981499 0.923454 0.212846 -0.423728
C47   C     C_2   0.831141 0.983616 0.756679 0.500403
H25   H     H_    0.962022 0.987335 0.792835 0.002045
O23   O     O_2   0.749177 0.910218 0.750483 -0.629859

loop_
_geom_bond_atom_site_label_1
_geom_bond_atom_site_label_2
_geom_bond_distance
_ccdc_geom_bond_type
O17   V3    2.167973 S    
V4    O20   2.160865 S    
C1    C28   1.473792 S    
C41   C42   1.523338 S    
C6    C7    1.387718 A    
C1    O6    1.295669 A    
C28   C29   1.412865 A    
C23   C24   1.400655 A    
C12   C15   1.437314 A    
C16   H6    1.083877 S    
C13   C14   1.417874 A    
C22   C23   1.411267 A    
C33   H17   1.109412 S    
C15   C16   1.404863 A    
C27   C32   1.363660 A    
O11   V4    2.006736 S    
C27   C34   1.488674 S    
O5    C3    1.296444 A    
C17   C18   1.382306 A    
V2    O10   2.160842 S    
C35   C42   1.491090 S    
C30   H15   1.070112 S    
C33   H16   1.111787 S    
C5    C6    1.391713 A    
C19   C24   1.394449 A    
C29   H14   1.082724 S    
O13   C46   1.298026 A    
O8    V2    2.006120 S    
C35   C40   1.388498 A    
N1    O21   1.300666 A    
C37   H20   1.083735 S    
C42   H23   1.112361 S    
C38   C39   1.426370 A    
O1    V2    2.005554 S    
C10   C14   1.416255 A    
C4    C14   1.488137 S    
O7    V1    2.167998 S    
O19   C46   1.301002 A    
C39   C43   1.485550 S    
C7    H4    1.082730 S    
C21   C22   1.410422 A    
C35   C36   1.397976 A    
C32   C33   1.490581 S    
O9    C4    1.297914 A    
O18   V4    2.005200 S    
H1    C17   1.083267 S    
C41   H21   1.108421 S    
O15   C45   1.297520 A    
C26   H12   1.111334 S    
C29   C30   1.415860 A    
V3    O20   1.715202 S    
C5    C10   1.417699 A    
C11   C12   1.438756 A    
O12   C43   1.305305 A    
C6    H3    1.082947 S    
C20   C21   1.409054 A    
O4    C2    1.299245 A    
C26   H13   1.111817 S    
C31   C32   1.394607 A    
C43   O16   1.294978 A    
C36   C37   1.408460 A    
C18   H7    1.079063 S    
C33   C34   1.542225 S    
C34   H18   1.111719 S    
O2    C1    1.299733 A    
C16   C17   1.379729 A    
O16   V4    2.007235 S    
O19   V4    2.006139 S    
C25   H11   1.111643 S    
C19   C26   1.489901 S    
O3    C4    1.295718 A    
C21   H8    1.080730 S    
O14   C44   1.300895 A    
O6    V2    2.006469 S    
C47   O23   1.219071 D    
O9    V2    2.005329 S    
C41   H22   1.111634 S    
C9    C11   1.423425 A    
C24   C25   1.489794 S    
C5    H2    1.080936 S    
C22   H9    1.081518 S    
O2    V1    2.002038 S    
C31   C44   1.480588 S    
C20   C46   1.484438 S    
O11   C44   1.297522 A    
C27   C28   1.395180 A    
C15   C47   1.475860 S    
C25   C26   1.520279 S    
O1    C2    1.298125 A    
C13   C18   1.417222 A    
O15   V3    2.002815 S    
C40   C41   1.493393 S    
C11   C45   1.494256 S    
O5    V1    2.004066 S    
O8    C3    1.303000 A    
N1    O22   1.299861 A    
C8    H5    1.080797 S    
C38   N1    1.433538 S    
C12   C13   1.432035 A    
O4    V1    2.000776 S    
O12   V3    2.000725 S    
O3    V1    2.002898 S    
V1    O10   1.715196 S    
C19   C20   1.402342 A    
O17   V4    1.709721 S    
C30   C31   1.414932 A    
O14   V3    2.002018 S    
O7    V2    1.710322 S    
O13   V3    2.004167 S    
C2    C36   1.479232 S    
C25   H10   1.110996 S    
C34   H19   1.110720 S    
C39   C40   1.402188 A    
C7    C8    1.393010 A    
C37   C38   1.416696 A    
C47   H25   1.078643 S    
C42   H24   1.111589 S    
C9    C10   1.423022 A    
C3    C23   1.485005 S    
O18   C45   1.300681 A    
C8    C9    1.419395 A    
