data_str_m3_o1_o5_f0_pcu.sym.50
_audit_creation_date              2012-12-10T18:57:50-0500
_audit_creation_method            fapswitch 2.2
_symmetry_space_group_name_H-M    P1
_symmetry_Int_Tables_number       1
_space_group_crystal_system       triclinic
_cell_length_a                    10.691769
_cell_length_b                    9.961717
_cell_length_c                    8.968922
_cell_angle_alpha                 90.56994
_cell_angle_beta                  91.450222
_cell_angle_gamma                 92.146392
_cell_volume                      954.232585845

loop_
_atom_site_label
_atom_site_type_symbol
_atom_type_description
_atom_site_fract_x
_atom_site_fract_y
_atom_site_fract_z
_atom_type_partial_charge
C1    C     C_R   0.260778 0.497608 0.497011 0.906296
C2    C     C_R   0.070994 0.532220 0.630076 0.109231
C3    C     C_R   0.872800 0.508471 0.496649 -0.141622
C4    C     C_R   0.127809 0.492683 0.498156 -0.146970
C5    C     C_R   0.560955 0.074467 0.610883 0.409792
C6    C     C_R   0.438824 0.922998 0.388818 0.437352
C7    C     C_R   0.436537 0.067051 0.390188 0.281255
C8    C     C_R   0.558992 0.932669 0.612037 0.352977
C9    C     C_3   0.130655 0.441353 0.220603 -0.438569
C10   C     C_3   0.172350 0.576161 0.156198 -0.856626
C11   C     C_3   0.882352 0.632293 0.748325 -0.393969
C12   C     C_R   0.739623 0.502535 0.501680 0.866562
C13   C     C_3   0.894074 0.782250 0.712991 -0.769191
C14   C     C_3   0.851111 0.437807 0.221662 -0.406065
C15   C     C_3   0.826244 0.287097 0.196249 -0.784540
C16   C     C_3   0.148625 0.548338 0.774739 -0.407096
C17   C     C_3   0.196527 0.693503 0.804196 -0.778322
C18   C     C_R   0.499577 0.499549 0.218868 0.915037
C19   C     C_R   0.501255 0.500453 0.781143 0.894484
C20   C     C_1   0.500940 0.499351 0.065336 -0.165335
C21   C     C_1   0.501496 0.500575 0.934714 -0.168765
C22   C     C_R   0.060404 0.463293 0.363994 0.114230
C23   C     C_R   0.942275 0.551496 0.625634 0.090953
C24   C     C_R   0.929557 0.466866 0.364168 0.124708
H1    H     H_    0.090511 0.627376 0.108041 0.252335
H2    H     H_    0.924900 0.615587 0.859866 0.197720
H3    H     H_    0.915048 0.233327 0.191117 0.244802
H4    H     H_    0.769999 0.243790 0.287540 0.280318
H5    H     H_    0.773019 0.270166 0.089337 0.263964
H6    H     H_    0.760049 0.487016 0.224228 0.195652
H7    H     H_    0.896149 0.483006 0.123085 0.195519
H8    H     H_    0.288523 0.694588 0.864347 0.260590
H9    H     H_    0.208955 0.749556 0.698980 0.274666
H10   H     H_    0.130871 0.747003 0.875375 0.244947
H11   H     H_    0.095000 0.508410 0.869472 0.197162
H12   H     H_    0.217588 0.643251 0.242164 0.311506
H13   H     H_    0.230072 0.482557 0.773351 0.194001
H14   H     H_    0.656096 0.228342 0.687751 0.369347
H15   H     H_    0.339013 0.904857 0.203429 0.371283
H16   H     H_    0.344739 0.215546 0.319081 0.381879
H17   H     H_    0.643488 0.784551 0.693504 0.373396
H18   H     H_    0.241780 0.558935 0.069512 0.258320
H19   H     H_    0.213661 0.380655 0.241522 0.212882
H20   H     H_    0.075667 0.382715 0.134734 0.220458
H21   H     H_    0.992478 0.815705 0.696785 0.253034
H22   H     H_    0.842222 0.804130 0.607877 0.265836
H23   H     H_    0.857086 0.841908 0.806122 0.277115
H24   H     H_    0.782477 0.602031 0.761570 0.188209
N1    N     N_R   0.500000 0.857200 0.500000 -0.214023
N2    N     N_R   0.500000 0.142800 0.500000 -0.238150
O1    O     O_R   0.316770 0.614620 0.499990 -0.578738
O2    O     O_3   0.376989 0.846276 0.279155 -0.723802
O3    O     O_3   0.367672 0.127625 0.280268 -0.763980
O4    O     O_3   0.620268 0.873505 0.728638 -0.709456
O5    O     O_R   0.683230 0.385380 0.500010 -0.643807
O6    O     O_R   0.683230 0.614620 0.500010 -0.644607
O7    O     O_R   0.316770 0.385380 0.499990 -0.656048
O8    O     O_R   0.500010 0.614640 0.285340 -0.550918
O9    O     O_R   0.499990 0.385360 0.714660 -0.603086
O10   O     O_R   0.499990 0.614640 0.714660 -0.620498
O11   O     O_R   0.500010 0.385360 0.285340 -0.608443
O12   O     O_3   0.627354 0.140313 0.724637 -0.698166
Zn1   Zn    Zn3+2 0.500000 0.653120 0.500000 0.978002
Zn2   Zn    Zn3+2 0.500000 0.346880 0.500000 0.944973

loop_
_geom_bond_atom_site_label_1
_geom_bond_atom_site_label_2
_ccdc_geom_bond_type
O11   Zn2   S    
C2    C4    A    
H16   O3    S    
C18   O11   A    
C6    C7    A    
N1    Zn1   S    
C1    O7    A    
C19   O10   A    
C10   H18   S    
C4    C22   A    
C9    C10   S    
C14   H7    S    
C3    C23   A    
C16   H13   S    
C1    C4    S    
C6    O2    S    
O5    Zn2   S    
C2    C23   A    
H15   O2    S    
C15   H4    S    
O6    Zn1   S    
O1    Zn1   S    
C16   H11   S    
C13   H21   S    
C1    O1    A    
C11   H24   S    
C12   O6    A    
C17   H9    S    
C14   H6    S    
O10   Zn1   S    
C10   H1    S    
C11   C23   S    
C19   C21   S    
C5    O12   S    
C15   H5    S    
C18   C20   S    
C6    N1    A    
C13   H22   S    
C5    N2    A    
C22   C24   A    
H17   O4    S    
C9    H19   S    
C12   O5    A    
C2    C16   S    
C17   H10   S    
C7    O3    S    
C14   C24   S    
O9    Zn2   S    
C11   C13   S    
N2    Zn2   S    
C20   C21   T    
O7    Zn2   S    
C9    C22   S    
C8    O4    S    
O8    Zn1   S    
C13   H23   S    
C17   H8    S    
C5    C8    A    
C14   C15   S    
C9    H20   S    
C10   H12   S    
C3    C12   S    
C11   H2    S    
C19   O9    A    
C15   H3    S    
C8    N1    A    
C18   O8    A    
C7    N2    A    
C3    C24   A    
C16   C17   S    
H14   O12   S    
