data_str_m3_o40_o41_f0_fof.sym.193
_audit_creation_date              2012-12-10T16:37:55-0500
_audit_creation_method            fapswitch 2.2
_symmetry_space_group_name_H-M    P1
_symmetry_Int_Tables_number       1
_space_group_crystal_system       triclinic
_cell_length_a                    28.277365
_cell_length_b                    18.541699
_cell_length_c                    16.959289
_cell_angle_alpha                 90.38173
_cell_angle_beta                  62.480414
_cell_angle_gamma                 89.97651
_cell_volume                      7885.59948694

loop_
_atom_site_label
_atom_site_type_symbol
_atom_type_description
_atom_site_fract_x
_atom_site_fract_y
_atom_site_fract_z
_atom_type_partial_charge
C1    C     C_R   0.702113 0.267802 0.676288 0.880865
C2    C     C_R   0.297887 0.732198 0.323712 0.880866
C3    C     C_R   0.298020 0.267527 0.323603 0.878715
C4    C     C_R   0.701980 0.732473 0.676397 0.878714
C5    C     C_R   0.202113 0.767802 0.676288 0.880865
C6    C     C_R   0.797887 0.232198 0.323712 0.880866
C7    C     C_R   0.798020 0.767527 0.323603 0.878715
C8    C     C_R   0.201980 0.232473 0.676397 0.878715
C9    C     C_R   0.915025 0.499777 0.455832 0.069086
C10   C     C_R   0.084973 0.500224 0.544173 0.069087
C11   C     C_R   0.415025 0.999777 0.455832 0.069086
C12   C     C_R   0.584973 0.000223 0.544173 0.069087
C13   C     C_R   0.078622 0.370868 0.557975 -0.216858
C14   C     C_R   0.921377 0.629132 0.442030 -0.216858
C15   C     C_R   0.921333 0.370236 0.442202 -0.216823
C16   C     C_R   0.078666 0.629764 0.557804 -0.216823
C17   C     C_R   0.578622 0.870868 0.557975 -0.216858
C18   C     C_R   0.421377 0.129132 0.442030 -0.216858
C19   C     C_R   0.421333 0.870236 0.442202 -0.216823
C20   C     C_R   0.578666 0.129764 0.557804 -0.216823
C21   C     C_R   0.717902 0.261516 0.957305 0.026341
C22   C     C_R   0.282098 0.738484 0.042695 0.026341
C23   C     C_R   0.282051 0.261825 0.042897 0.025619
C24   C     C_R   0.717949 0.738175 0.957103 0.025619
C25   C     C_R   0.217902 0.761516 0.957305 0.026341
C26   C     C_R   0.782098 0.238484 0.042695 0.026341
C27   C     C_R   0.782051 0.761825 0.042897 0.025619
C28   C     C_R   0.217949 0.238175 0.957103 0.025619
C29   C     C_R   0.763543 0.217413 0.916259 0.024248
C30   C     C_R   0.236457 0.782587 0.083741 0.024248
C31   C     C_R   0.236655 0.217764 0.083271 0.024307
C32   C     C_R   0.763345 0.782235 0.916729 0.024307
C33   C     C_R   0.263544 0.717413 0.916259 0.024248
C34   C     C_R   0.736457 0.282587 0.083741 0.024248
C35   C     C_R   0.736655 0.717764 0.083271 0.024307
C36   C     C_R   0.263345 0.282235 0.916729 0.024307
C37   C     C_R   0.797327 0.209272 0.956868 0.063546
C38   C     C_R   0.202673 0.790728 0.043132 0.063546
C39   C     C_R   0.202938 0.209313 0.042530 0.063880
C40   C     C_R   0.797062 0.790686 0.957469 0.063879
C41   C     C_R   0.297327 0.709272 0.956868 0.063546
C42   C     C_R   0.702673 0.290728 0.043132 0.063546
C43   C     C_R   0.702938 0.709313 0.042530 0.063880
C44   C     C_R   0.297062 0.290686 0.957469 0.063879
C45   C     C_R   0.641349 0.320186 0.953074 0.062636
C46   C     C_R   0.358651 0.679814 0.046926 0.062636
C47   C     C_R   0.358643 0.320106 0.047396 0.064067
C48   C     C_R   0.641357 0.679894 0.952604 0.064067
C49   C     C_R   0.141349 0.820186 0.953074 0.062636
C50   C     C_R   0.858651 0.179814 0.046926 0.062636
C51   C     C_R   0.858643 0.820106 0.047396 0.064067
C52   C     C_R   0.141357 0.179894 0.952604 0.064067
C53   C     C_R   0.619201 0.349842 0.899358 -0.182275
C54   C     C_R   0.380799 0.650158 0.100642 -0.182275
C55   C     C_R   0.381872 0.348562 0.100324 -0.181836
C56   C     C_R   0.618128 0.651438 0.899676 -0.181837
C57   C     C_R   0.119201 0.849842 0.899358 -0.182275
C58   C     C_R   0.880799 0.150158 0.100642 -0.182275
C59   C     C_R   0.881872 0.848562 0.100324 -0.181836
C60   C     C_R   0.118128 0.151438 0.899676 -0.181837
C61   C     C_R   0.645264 0.338919 0.807915 -0.130210
C62   C     C_R   0.354736 0.661081 0.192085 -0.130209
C63   C     C_R   0.358481 0.334595 0.191252 -0.140161
C64   C     C_R   0.641519 0.665405 0.808748 -0.140161
C65   C     C_R   0.145264 0.838919 0.807915 -0.130210
C66   C     C_R   0.854736 0.161081 0.192085 -0.130209
C67   C     C_R   0.858481 0.834595 0.191252 -0.140161
C68   C     C_R   0.141519 0.165405 0.808748 -0.140161
C69   C     C_R   0.680854 0.281357 0.772493 -0.168683
C70   C     C_R   0.319146 0.718643 0.227507 -0.168684
C71   C     C_R   0.320238 0.280152 0.227077 -0.169015
C72   C     C_R   0.679762 0.719848 0.772923 -0.169015
C73   C     C_R   0.180854 0.781357 0.772493 -0.168683
C74   C     C_R   0.819146 0.218643 0.227507 -0.168684
C75   C     C_R   0.820238 0.780152 0.227077 -0.169016
C76   C     C_R   0.179762 0.219848 0.772923 -0.169015
C77   C     C_R   0.701972 0.247914 0.826455 -0.000304
C78   C     C_R   0.298028 0.752086 0.173545 -0.000304
C79   C     C_R   0.298321 0.248202 0.173211 0.001442
C80   C     C_R   0.701679 0.751798 0.826789 0.001442
C81   C     C_R   0.201972 0.747914 0.826455 -0.000304
C82   C     C_R   0.798028 0.252086 0.173545 -0.000304
C83   C     C_R   0.798321 0.748202 0.173211 0.001442
C84   C     C_R   0.201679 0.251798 0.826789 0.001442
C85   C     C_R   0.691761 0.129249 0.533617 0.892400
C86   C     C_R   0.308238 0.870752 0.466384 0.892401
C87   C     C_R   0.308254 0.129080 0.466319 0.892527
C88   C     C_R   0.691746 0.870920 0.533681 0.892527
C89   C     C_R   0.191761 0.629248 0.533617 0.892400
C90   C     C_R   0.808238 0.370752 0.466384 0.892401
C91   C     C_R   0.808254 0.629080 0.466319 0.892527
C92   C     C_R   0.191746 0.370920 0.533681 0.892527
C93   C     C_R   0.687449 0.277120 0.911884 0.061735
C94   C     C_R   0.312551 0.722881 0.088116 0.061735
C95   C     C_R   0.312618 0.277409 0.088356 0.062171
C96   C     C_R   0.687382 0.722591 0.911644 0.062171
C97   C     C_R   0.187449 0.777120 0.911884 0.061735
C98   C     C_R   0.812551 0.222881 0.088116 0.061735
C99   C     C_R   0.812618 0.777409 0.088356 0.062171
C100  C     C_R   0.187382 0.222591 0.911644 0.062171
C101  C     C_R   0.620779 0.333000 0.045621 -0.174634
C102  C     C_R   0.379221 0.667000 0.954379 -0.174634
C103  C     C_R   0.378847 0.332779 0.955128 -0.175270
C104  C     C_R   0.621152 0.667220 0.044872 -0.175270
C105  C     C_R   0.120779 0.833000 0.045621 -0.174634
C106  C     C_R   0.879221 0.167000 0.954379 -0.174634
C107  C     C_R   0.878848 0.832779 0.955128 -0.175270
C108  C     C_R   0.121153 0.167220 0.044872 -0.175270
C109  C     C_R   0.651874 0.321952 0.088409 -0.221340
C110  C     C_R   0.348126 0.678048 0.911591 -0.221339
C111  C     C_R   0.347672 0.321765 0.912478 -0.221286
C112  C     C_R   0.652328 0.678235 0.087522 -0.221286
C113  C     C_R   0.151874 0.821952 0.088409 -0.221340
C114  C     C_R   0.848126 0.178048 0.911591 -0.221339
C115  C     C_R   0.847672 0.821765 0.912478 -0.221286
C116  C     C_R   0.152328 0.178235 0.087522 -0.221286
C117  C     C_R   0.737722 0.188284 0.800303 0.022154
C118  C     C_R   0.262278 0.811716 0.199696 0.022154
C119  C     C_R   0.262694 0.188809 0.198562 0.021959
C120  C     C_R   0.737306 0.811191 0.801438 0.021960
C121  C     C_R   0.237722 0.688284 0.800303 0.022154
C122  C     C_R   0.762278 0.311716 0.199696 0.022154
C123  C     C_R   0.762694 0.688809 0.198562 0.021959
C124  C     C_R   0.237306 0.311191 0.801438 0.021960
C125  C     C_R   0.770553 0.177104 0.840837 -0.253736
C126  C     C_R   0.229447 0.822896 0.159163 -0.253737
C127  C     C_R   0.229837 0.177676 0.158057 -0.253645
C128  C     C_R   0.770163 0.822324 0.841943 -0.253644
C129  C     C_R   0.270553 0.677104 0.840837 -0.253736
C130  C     C_R   0.729447 0.322896 0.159163 -0.253737
C131  C     C_R   0.729837 0.677676 0.158057 -0.253645
C132  C     C_R   0.270163 0.322324 0.841943 -0.253644
C133  C     C_R   0.074373 0.099551 0.934636 0.905052
C134  C     C_R   0.925628 0.900449 0.065364 0.905052
C135  C     C_R   0.925332 0.099268 0.065733 0.909064
C136  C     C_R   0.074668 0.900732 0.934267 0.909063
C137  C     C_R   0.574372 0.599551 0.934636 0.905052
C138  C     C_R   0.425627 0.400449 0.065364 0.905052
C139  C     C_R   0.425332 0.599268 0.065733 0.909064
C140  C     C_R   0.574668 0.400732 0.934267 0.909063
C141  C     C_R   0.539066 0.131606 0.529827 0.032542
C142  C     C_R   0.460932 0.868394 0.470180 0.032540
C143  C     C_R   0.461011 0.131275 0.469934 0.032760
C144  C     C_R   0.538987 0.868725 0.530072 0.032761
C145  C     C_R   0.039066 0.631606 0.529827 0.032542
C146  C     C_R   0.960932 0.368394 0.470180 0.032540
C147  C     C_R   0.961011 0.631275 0.469934 0.032760
C148  C     C_R   0.038987 0.368725 0.530072 0.032761
C149  C     C_R   0.518996 0.197703 0.515977 -0.046623
C150  C     C_R   0.481002 0.802297 0.484031 -0.046623
C151  C     C_R   0.481154 0.197520 0.483597 -0.046744
C152  C     C_R   0.518844 0.802480 0.516410 -0.046744
C153  C     C_R   0.018996 0.697703 0.515977 -0.046623
C154  C     C_R   0.981002 0.302297 0.484031 -0.046623
C155  C     C_R   0.981154 0.697520 0.483597 -0.046744
C156  C     C_R   0.018844 0.302480 0.516410 -0.046744
C157  C     C_R   0.479836 0.065744 0.486570 0.014034
C158  C     C_R   0.520163 0.934256 0.513436 0.014034
C159  C     C_R   0.520203 0.065887 0.513310 0.014077
C160  C     C_R   0.479795 0.934113 0.486697 0.014077
C161  C     C_R   0.979835 0.565744 0.486570 0.014034
C162  C     C_R   0.020163 0.434256 0.513436 0.014034
C163  C     C_R   0.020203 0.565887 0.513310 0.014077
C164  C     C_R   0.979795 0.434113 0.486697 0.014077
C165  C     C_R   0.958961 0.499866 0.474603 -0.017358
C166  C     C_R   0.041037 0.500134 0.525403 -0.017358
C167  C     C_R   0.458961 0.999866 0.474603 -0.017358
C168  C     C_R   0.541037 0.000134 0.525403 -0.017358
C169  C     C_R   0.892737 0.434124 0.447482 0.047065
C170  C     C_R   0.107262 0.565876 0.552522 0.047065
C171  C     C_R   0.107244 0.434648 0.552593 0.047266
C172  C     C_R   0.892755 0.565352 0.447410 0.047266
C173  C     C_R   0.392737 0.934124 0.447482 0.047065
C174  C     C_R   0.607262 0.065876 0.552522 0.047065
C175  C     C_R   0.607244 0.934648 0.552593 0.047266
C176  C     C_R   0.392755 0.065352 0.447410 0.047266
C177  C     C_R   0.842201 0.434887 0.446967 -0.118220
C178  C     C_R   0.157799 0.565114 0.553035 -0.118221
C179  C     C_R   0.157786 0.435345 0.553088 -0.118739
C180  C     C_R   0.842213 0.564655 0.446914 -0.118738
C181  C     C_R   0.342201 0.934886 0.446967 -0.118220
C182  C     C_R   0.657799 0.065114 0.553035 -0.118221
C183  C     C_R   0.657786 0.935345 0.553088 -0.118739
C184  C     C_R   0.342213 0.064655 0.446914 -0.118738
C185  C     C_R   0.819163 0.499763 0.443375 -0.268732
C186  C     C_R   0.180837 0.500237 0.556626 -0.268729
C187  C     C_R   0.319163 0.999763 0.443375 -0.268732
C188  C     C_R   0.680837 0.000237 0.556626 -0.268729
H1    H     H_    0.780431 0.499802 0.444825 0.211512
H2    H     H_    0.219570 0.500198 0.555174 0.211512
H3    H     H_    0.280431 0.999802 0.444825 0.211512
H4    H     H_    0.719570 0.000198 0.555174 0.211512
H5    H     H_    0.086196 0.322357 0.584857 0.186028
H6    H     H_    0.913803 0.677643 0.415147 0.186029
H7    H     H_    0.913780 0.321390 0.415326 0.186530
H8    H     H_    0.086220 0.678610 0.584679 0.186528
H9    H     H_    0.586196 0.822357 0.584857 0.186028
H10   H     H_    0.413803 0.177643 0.415147 0.186029
H11   H     H_    0.413780 0.821390 0.415326 0.186530
H12   H     H_    0.586220 0.178610 0.584679 0.186528
H13   H     H_    0.580668 0.350973 0.087972 0.179257
H14   H     H_    0.419332 0.649026 0.912028 0.179257
H15   H     H_    0.419007 0.349920 0.912644 0.179081
H16   H     H_    0.580993 0.650080 0.087356 0.179081
H17   H     H_    0.080668 0.850974 0.087972 0.179257
H18   H     H_    0.919332 0.149027 0.912028 0.179257
H19   H     H_    0.919007 0.849920 0.912644 0.179081
H20   H     H_    0.080993 0.150080 0.087356 0.179081
H21   H     H_    0.634614 0.335612 0.158334 0.149355
H22   H     H_    0.365386 0.664388 0.841665 0.149355
H23   H     H_    0.364853 0.335035 0.842697 0.149273
H24   H     H_    0.635147 0.664965 0.157302 0.149273
H25   H     H_    0.134614 0.835612 0.158334 0.149355
H26   H     H_    0.865386 0.164388 0.841665 0.149355
H27   H     H_    0.864853 0.835035 0.842697 0.149273
H28   H     H_    0.135147 0.164965 0.157302 0.149273
H29   H     H_    0.798655 0.132649 0.817208 0.148744
H30   H     H_    0.201346 0.867351 0.182792 0.148744
H31   H     H_    0.201984 0.133237 0.180991 0.148778
H32   H     H_    0.798016 0.866762 0.819009 0.148778
H33   H     H_    0.298655 0.632649 0.817208 0.148744
H34   H     H_    0.701346 0.367351 0.182792 0.148744
H35   H     H_    0.701984 0.633237 0.180991 0.148778
H36   H     H_    0.298016 0.366762 0.819009 0.148778
O1    O     O_R   0.746490 0.236330 0.638080 -0.623001
O2    O     O_R   0.253510 0.763670 0.361920 -0.623001
O3    O     O_R   0.253510 0.236330 0.361920 -0.620963
O4    O     O_R   0.746490 0.763670 0.638080 -0.620963
O5    O     O_R   0.246490 0.736330 0.638080 -0.623001
O6    O     O_R   0.753510 0.263670 0.361920 -0.623001
O7    O     O_R   0.753510 0.736330 0.361920 -0.620963
O8    O     O_R   0.246490 0.263670 0.638080 -0.620963
O9    O     O_R   0.674170 0.186160 0.516270 -0.641946
O10   O     O_R   0.325830 0.813840 0.483730 -0.641947
O11   O     O_R   0.325830 0.186160 0.483730 -0.641459
O12   O     O_R   0.674170 0.813840 0.516270 -0.641459
O13   O     O_R   0.174170 0.686160 0.516270 -0.641946
O14   O     O_R   0.825830 0.313840 0.483730 -0.641947
O15   O     O_R   0.825830 0.686160 0.483730 -0.641459
O16   O     O_R   0.174170 0.313840 0.516270 -0.641459
O17   O     O_R   0.739960 0.127620 0.525000 -0.611884
O18   O     O_R   0.260040 0.872380 0.475000 -0.611884
O19   O     O_R   0.260040 0.127620 0.475000 -0.612040
O20   O     O_R   0.739960 0.872380 0.525000 -0.612041
O21   O     O_R   0.239960 0.627620 0.525000 -0.611884
O22   O     O_R   0.760040 0.372380 0.475000 -0.611884
O23   O     O_R   0.760040 0.627620 0.475000 -0.612040
O24   O     O_R   0.239960 0.372380 0.525000 -0.612041
O25   O     O_R   0.680700 0.294870 0.629350 -0.619038
O26   O     O_R   0.319300 0.705130 0.370650 -0.619038
O27   O     O_R   0.319300 0.294870 0.370650 -0.622370
O28   O     O_R   0.680700 0.705130 0.629350 -0.622370
O29   O     O_R   0.180700 0.794870 0.629350 -0.619038
O30   O     O_R   0.819300 0.205130 0.370650 -0.619038
O31   O     O_R   0.819300 0.794870 0.370650 -0.622370
O32   O     O_R   0.180700 0.205130 0.629350 -0.622370
O33   O     O_R   0.062020 0.072840 0.007170 -0.634071
O34   O     O_R   0.937980 0.927160 0.992830 -0.634071
O35   O     O_R   0.937980 0.072840 0.992830 -0.635628
O36   O     O_R   0.062020 0.927160 0.007170 -0.635628
O37   O     O_R   0.562020 0.572840 0.007170 -0.634071
O38   O     O_R   0.437980 0.427160 0.992830 -0.634071
O39   O     O_R   0.437980 0.572840 0.992830 -0.635628
O40   O     O_R   0.562020 0.427160 0.007170 -0.635628
O41   O     O_R   0.947860 0.073950 0.109290 -0.612571
O42   O     O_R   0.052140 0.926050 0.890710 -0.612571
O43   O     O_R   0.052140 0.073950 0.890710 -0.615896
O44   O     O_R   0.947860 0.926050 0.109290 -0.615897
O45   O     O_R   0.447860 0.573950 0.109290 -0.612571
O46   O     O_R   0.552140 0.426050 0.890710 -0.612571
O47   O     O_R   0.552140 0.573950 0.890710 -0.615896
O48   O     O_R   0.447860 0.426050 0.109290 -0.615897
Zn1   Zn    Zn3+2 0.792340 0.208750 0.507670 1.007565
Zn2   Zn    Zn3+2 0.207660 0.791250 0.492330 1.007565
Zn3   Zn    Zn3+2 0.207660 0.208750 0.492330 1.007631
Zn4   Zn    Zn3+2 0.792340 0.791250 0.507670 1.007631
Zn5   Zn    Zn3+2 0.292340 0.708750 0.507670 1.007565
Zn6   Zn    Zn3+2 0.707660 0.291250 0.492330 1.007565
Zn7   Zn    Zn3+2 0.707660 0.708750 0.492330 1.007631
Zn8   Zn    Zn3+2 0.292340 0.291250 0.507670 1.007631
Zn9   Zn    Zn3+2 0.505960 0.500000 0.080520 0.960419
Zn10  Zn    Zn3+2 0.494040 0.500000 0.919480 0.960420
Zn11  Zn    Zn3+2 0.005960 0.000000 0.080520 0.960419
Zn12  Zn    Zn3+2 0.994040 0.000000 0.919480 0.960420
C189  C     C_1   0.038442 0.234290 0.531815 0.157045
N1    N     N_1   0.054085 0.179994 0.544063 -0.201501
C190  C     C_1   0.961555 0.765710 0.468194 0.157046
N2    N     N_1   0.945911 0.820006 0.455946 -0.201502
C191  C     C_1   0.961307 0.233936 0.468867 0.157233
N3    N     N_1   0.945588 0.179501 0.456818 -0.202842
C192  C     C_1   0.038689 0.766065 0.531143 0.157232
N4    N     N_1   0.054408 0.820500 0.543194 -0.202841
C193  C     C_1   0.538443 0.734290 0.531815 0.157045
N5    N     N_1   0.554085 0.679994 0.544063 -0.201501
C194  C     C_1   0.461555 0.265710 0.468194 0.157046
N6    N     N_1   0.445911 0.320005 0.455946 -0.201502
C195  C     C_1   0.461307 0.733936 0.468867 0.157233
N7    N     N_1   0.445588 0.679501 0.456818 -0.202842
C196  C     C_1   0.538689 0.266064 0.531143 0.157232
N8    N     N_1   0.554408 0.320500 0.543194 -0.202841
C197  C     C_1   0.640762 0.392971 0.749587 0.272033
N9    N     N_1   0.637485 0.435248 0.702500 -0.168515
C198  C     C_1   0.359238 0.607029 0.250413 0.272033
N10   N     N_1   0.362515 0.564752 0.297500 -0.168515
C199  C     C_1   0.371653 0.380040 0.249128 0.292646
N11   N     N_1   0.382407 0.415110 0.295274 -0.159765
C200  C     C_1   0.628347 0.619960 0.750872 0.292646
N12   N     N_1   0.617592 0.584890 0.704726 -0.159765
C201  C     C_1   0.140762 0.892971 0.749587 0.272033
N13   N     N_1   0.137485 0.935248 0.702500 -0.168515
C202  C     C_1   0.859238 0.107029 0.250413 0.272033
N14   N     N_1   0.862515 0.064752 0.297500 -0.168515
C203  C     C_1   0.871653 0.880040 0.249128 0.292646
N15   N     N_1   0.882407 0.915110 0.295274 -0.159765
C204  C     C_1   0.128347 0.119960 0.750872 0.292646
N16   N     N_1   0.117592 0.084890 0.704726 -0.159765
C205  C     C_1   0.734324 0.129823 0.746411 0.196697
N17   N     N_1   0.731520 0.082752 0.703660 -0.188951
C206  C     C_1   0.265676 0.870178 0.253589 0.196697
N18   N     N_1   0.268480 0.917249 0.296340 -0.188952
C207  C     C_1   0.266575 0.130174 0.251031 0.195213
N19   N     N_1   0.269783 0.083015 0.292657 -0.189663
C208  C     C_1   0.733425 0.869826 0.748969 0.195213
N20   N     N_1   0.730217 0.916985 0.707343 -0.189662
C209  C     C_1   0.234324 0.629823 0.746411 0.196697
N21   N     N_1   0.231520 0.582751 0.703660 -0.188951
C210  C     C_1   0.765676 0.370178 0.253589 0.196697
N22   N     N_1   0.768480 0.417249 0.296340 -0.188952
C211  C     C_1   0.766575 0.630174 0.251031 0.195213
N23   N     N_1   0.769783 0.583015 0.292657 -0.189663
C212  C     C_1   0.233425 0.369826 0.748969 0.195213
N24   N     N_1   0.230217 0.416985 0.707343 -0.189662

loop_
_geom_bond_atom_site_label_1
_geom_bond_atom_site_label_2
_ccdc_geom_bond_type
C85   C182  S    
C35   C131  A    
O12   Zn7   S    
C9    C169  A    
C192  N4    T    
C34   C42   A    
C116  H28   S    
C181  C187  A    
C138  O48   A    
C197  N9    T    
C139  O45   A    
C27   C99   A    
C170  C178  A    
C151  C194  S    
C62   C198  S    
C104  H16   S    
C12   C174  A    
C42   C109  A    
C24   C96   A    
C1    O1    A    
C61   C197  S    
C30   C38   A    
O3    Zn3   S    
O27   Zn8   S    
O13   Zn2   S    
C136  O36   A    
C17   H9    S    
C147  C155  A    
C107  H19   S    
C123  C131  A    
C143  C151  A    
C14   H6    S    
C90   C177  S    
C11   C167  A    
O40   Zn9   S    
C82   C98   A    
O45   Zn9   S    
C109  H21   S    
C73   C81   A    
C161  C163  A    
C162  C164  A    
C90   O14   A    
C127  H31   S    
C208  N20   T    
C84   C100  A    
O26   Zn5   S    
C4    O28   A    
C57   C65   A    
O47   Zn10  S    
C37   C114  A    
C27   C35   A    
C10   C171  A    
C21   C29   A    
C8    O32   A    
C81   C121  A    
C23   C31   A    
C186  H2    S    
C24   C32   A    
C198  N10   T    
C146  C154  A    
C86   O18   A    
C120  C128  A    
C115  H27   S    
C14   C172  A    
C13   H5    S    
C63   C71   A    
C85   O9    A    
C36   C44   A    
O41   Zn11  S    
C175  C183  A    
O42   Zn12  S    
C176  C184  A    
C164  C165  A    
C48   C96   A    
O1    Zn1   S    
C106  H18   S    
O7    Zn7   S    
O31   Zn4   S    
C148  C162  A    
O8    Zn8   S    
C101  H13   S    
C183  C188  A    
C108  C116  A    
C21   C93   A    
O43   Zn12  S    
C78   C94   A    
O5    Zn5   S    
C89   O21   A    
C49   C97   A    
C21   C42   A    
C22   C41   A    
C51   C107  A    
C207  N19   T    
C24   C43   A    
C65   C201  S    
C82   C122  A    
C161  C165  A    
C126  H30   S    
C18   C176  A    
C139  O39   A    
C114  H26   S    
C69   C77   A    
C31   C127  A    
C108  H20   S    
C45   C93   A    
C174  C182  A    
C71   C79   A    
C137  O47   A    
C87   O11   A    
C179  C186  A    
C62   C70   A    
C11   C176  A    
O6    Zn6   S    
C17   C144  A    
C105  C113  A    
C18   C143  A    
C78   C118  A    
O28   Zn7   S    
C3    O27   A    
O29   Zn2   S    
C149  C151  A    
C1    O25   A    
C66   C74   A    
C8    C76   S    
C49   C57   A    
C124  C132  A    
C136  O42   A    
C5    O29   A    
C20   H12   S    
C52   C60   A    
C59   C67   A    
C53   C61   A    
C141  C159  A    
C20   C174  A    
C23   C95   A    
C55   C63   A    
C86   C181  S    
C56   C64   A    
O14   Zn1   S    
C35   C43   A    
C128  H32   S    
C45   C53   A    
C22   C94   A    
C171  C179  A    
C2    O2    A    
C169  C177  A    
C156  C189  S    
C133  O43   A    
C50   C98   A    
O44   Zn11  S    
C104  C112  A    
C145  C163  A    
C146  C164  A    
C14   C147  A    
C52   C100  A    
C16   C145  A    
C178  C186  A    
C193  N5    T    
C25   C38   A    
C54   C139  S    
C46   C94   A    
C27   C40   A    
C10   C166  A    
C91   C180  S    
C191  N3    T    
C182  C188  A    
C89   C178  S    
O46   Zn10  S    
C60   C68   A    
C92   O24   A    
O37   Zn9   S    
C25   C97   A    
C39   C116  A    
C6    O6    A    
C67   C75   A    
O19   Zn3   S    
C92   O16   A    
C22   C30   A    
C20   C141  A    
C15   C146  A    
C185  H1    S    
C58   C135  S    
C68   C76   A    
O2    Zn2   S    
C154  C191  S    
C19   H11   S    
C184  C187  A    
C188  H4    S    
C32   C128  A    
C152  C193  S    
C72   C80   A    
C56   C137  S    
O34   Zn12  S    
C5    O5    A    
O23   Zn7   S    
O24   Zn8   S    
C17   C175  A    
C13   C171  A    
C140  O40   A    
O20   Zn4   S    
C131  H35   S    
C117  C125  A    
C25   C33   A    
C119  C127  A    
C76   C84   A    
C80   C120  A    
C158  C168  A    
C7    O7    A    
O9    Zn6   S    
C86   O10   A    
O39   Zn10  S    
O35   Zn12  S    
C29   C125  A    
C40   C115  A    
C101  C109  A    
C177  C185  A    
C103  C111  A    
C211  N23   T    
O17   Zn1   S    
C162  C166  A    
C75   C83   A    
C138  O38   A    
C119  C207  S    
C79   C119  A    
C18   H10   S    
C153  C155  A    
C154  C156  A    
C15   H7    S    
C172  C180  A    
C133  O33   A    
C173  C181  A    
C204  N16   T    
C157  C159  A    
C83   C99   A    
C158  C160  A    
C110  H22   S    
C74   C82   A    
O30   Zn1   S    
C6    C74   S    
C134  O44   A    
C91   O23   A    
C150  C195  S    
C47   C103  A    
C200  N12   T    
C50   C58   A    
C89   O13   A    
C130  H34   S    
C163  C166  A    
C147  C161  A    
C194  N6    T    
C38   C113  A    
C49   C105  A    
C54   C62   A    
C28   C39   A    
C149  C196  S    
C1    C69   S    
C23   C44   A    
C68   C204  S    
C3    C71   S    
C196  N8    T    
C19   C173  A    
C79   C95   A    
C189  N1    T    
C16   H8    S    
C92   C179  S    
C122  C210  S    
C190  N2    T    
C46   C54   A    
C85   O17   A    
C45   C101  A    
C19   C142  A    
C157  C167  A    
C102  C110  A    
C3    O3    A    
C4    C72   S    
O36   Zn11  S    
C33   C129  A    
O48   Zn9   S    
C59   C134  S    
C7    O31   A    
C132  H36   S    
C135  O35   A    
C121  C129  A    
C88   O20   A    
O16   Zn3   S    
C26   C37   A    
C105  H17   S    
C10   C170  A    
C118  C206  S    
C33   C41   A    
C142  C150  A    
C36   C132  A    
C102  H14   S    
C210  N22   T    
C121  C209  S    
C203  N15   T    
O38   Zn10  S    
C153  C192  S    
C90   O22   A    
C77   C93   A    
C140  O46   A    
C4    O4    A    
C209  N21   T    
C111  H23   S    
C206  N18   T    
C44   C111  A    
C16   C170  A    
C28   C36   A    
C144  C152  A    
C199  N11   T    
C29   C37   A    
C50   C106  A    
C9    C172  A    
C148  C156  A    
C83   C123  A    
C2    C70   S    
C60   C133  S    
C125  H29   S    
C202  N14   T    
C30   C126  A    
C70   C78   A    
C53   C140  S    
C195  N7    T    
C63   C199  S    
C113  H25   S    
C212  N24   T    
C141  C149  A    
C201  N13   T    
C159  C168  A    
C46   C102  A    
C6    O30   A    
C55   C138  S    
C117  C205  S    
C106  C114  A    
O11   Zn8   S    
C112  H24   S    
O33   Zn11  S    
C77   C117  A    
C2    O26   A    
C120  C208  S    
C123  C211  S    
C124  C212  S    
C48   C104  A    
C65   C73   A    
O25   Zn6   S    
C15   C169  A    
C160  C167  A    
O22   Zn6   S    
C64   C200  S    
C58   C66   A    
C67   C203  S    
O32   Zn3   S    
C80   C96   A    
C187  H3    S    
C134  O34   A    
C145  C153  A    
C28   C100  A    
C32   C40   A    
C52   C108  A    
O10   Zn5   S    
O15   Zn4   S    
C5    C73   S    
C26   C34   A    
C143  C157  A    
C51   C99   A    
C88   O12   A    
C11   C173  A    
C9    C165  A    
O18   Zn2   S    
C129  H33   S    
C87   C184  S    
C88   C183  S    
C7    C75   S    
C87   O19   A    
C57   C136  S    
C107  C115  A    
C26   C98   A    
C12   C175  A    
C41   C110  A    
C150  C152  A    
C51   C59   A    
C43   C112  A    
C144  C158  A    
C47   C55   A    
C61   C69   A    
C48   C56   A    
C142  C160  A    
C12   C168  A    
O21   Zn5   S    
C66   C202  S    
C84   C124  A    
C8    O8    A    
C81   C97   A    
C155  C190  S    
C31   C39   A    
C64   C72   A    
C205  N17   T    
O4    Zn4   S    
C103  H15   S    
C180  C185  A    
C34   C130  A    
C91   O15   A    
C135  O41   A    
C47   C95   A    
C118  C126  A    
C13   C148  A    
C122  C130  A    
C137  O37   A    
