data_str_m9_o2_o17_f0_sra.sym.123
_audit_creation_date              2013-03-05T16:02:01-0500
_audit_creation_method            fapswitch 2.2
_symmetry_space_group_name_H-M    P1
_symmetry_Int_Tables_number       1
_space_group_crystal_system       triclinic
_cell_length_a                    6.945032
_cell_length_b                    17.560198
_cell_length_c                    19.495646
_cell_angle_alpha                 108.62038
_cell_angle_beta                  89.079303
_cell_angle_gamma                 90.312946
_cell_volume                      2252.86620663

loop_
_atom_site_label
_atom_site_type_symbol
_atom_site_description
_atom_site_fract_x
_atom_site_fract_y
_atom_site_fract_z
_atom_type_partial_charge
O1    O     O_R   0.494330 0.415720 0.413720 -0.580877
O2    O     O_R   0.819330 0.430070 0.560210 -0.571919
O3    O     O_R   0.994320 0.584280 0.586280 -0.606792
C1    C     C_R   0.649357 0.414417 0.581395 0.964527
O4    O     O_R   0.823730 0.406300 0.412670 -0.562504
O5    O     O_R   0.998760 0.560340 0.437690 -0.549298
C2    C     C_R   0.657214 0.385347 0.383272 1.004417
O6    O     O_R   0.489890 0.439660 0.562310 -0.578493
O7    O     O_3   0.662340 0.550560 0.508380 -0.271247
V1    V     V_3+5 0.935370 0.490620 0.498450 1.278812
O8    O     O_R   0.328750 0.569930 0.439790 -0.598059
C3    C     C_R   0.160548 0.586492 0.419541 1.015692
O9    O     O_R   0.324340 0.593700 0.587330 -0.598032
C4    C     C_R   0.154001 0.617837 0.613901 0.912930
V2    V     V_3+5 0.435940 0.509380 0.501550 1.251960
O10   O     O_3   0.159100 0.449440 0.491620 -0.231951
C5    C     C_R   0.279448 0.599543 0.747849 -0.175442
C6    C     C_R   0.335453 0.587511 0.811766 -0.158720
C7    C     C_R   0.321210 0.649709 0.876860 -0.032038
C8    C     C_R   0.253750 0.724994 0.878517 -0.116570
C9    C     C_R   0.196282 0.739184 0.814386 0.081947
C10   C     C_R   0.207915 0.674907 0.747718 0.119172
C11   C     C_R   0.121473 0.814859 0.816222 -0.281395
C12   C     C_R   0.049709 0.824861 0.751924 0.110342
C13   C     C_R   0.055395 0.759897 0.685691 0.080215
C14   C     C_R   0.140979 0.685620 0.683083 -0.262562
C15   C     C_R   0.971570 0.899198 0.752365 -0.216672
C16   C     C_R   0.891505 0.908354 0.690606 -0.135542
C17   C     C_R   0.888976 0.844295 0.625998 0.403171
C18   C     C_R   0.974542 0.771095 0.623318 -0.296631
H1    H     H_    0.288910 0.548383 0.699052 0.132488
H2    H     H_    0.360744 0.638850 0.926296 0.178980
H3    H     H_    0.243113 0.771264 0.930651 0.132481
H4    H     H_    0.827752 0.965555 0.693831 0.207081
H5    H     H_    0.976453 0.723226 0.572047 0.147860
C19   C     C_R   0.308557 0.636740 0.324425 -0.173499
C20   C     C_R   0.152813 0.636566 0.371003 -0.140535
C21   C     C_R   0.989063 0.682983 0.369664 -0.096281
C22   C     C_R   0.982524 0.730168 0.323417 0.133346
C23   C     C_R   0.138655 0.728395 0.275738 0.088766
C24   C     C_R   0.301802 0.681301 0.276400 0.118458
C25   C     C_R   0.823369 0.779272 0.324032 -0.156531
C26   C     C_R   0.818318 0.825566 0.277391 -0.207213
C27   C     C_R   0.970959 0.822689 0.228461 0.141354
C28   C     C_R   0.132110 0.773876 0.227528 0.014758
C29   C     C_R   0.288111 0.771308 0.179419 -0.030030
C30   C     C_R   0.449972 0.723909 0.181280 -0.096895
C31   C     C_R   0.456278 0.679611 0.229153 -0.168033
C32   C     C_R   0.965485 0.868324 0.181063 -0.194149
C33   C     C_R   0.116804 0.865253 0.131398 -0.313163
C34   C     C_R   0.280773 0.817056 0.131498 0.292715
H6    H     H_    0.433381 0.600521 0.324271 0.188422
H7    H     H_    0.867162 0.682370 0.404684 0.185573
H8    H     H_    0.702412 0.781793 0.360487 0.177648
H9    H     H_    0.845435 0.908364 0.184423 0.177794
H10   H     H_    0.583661 0.644701 0.229875 0.202691
C35   C     C_R   0.770036 0.188449 0.871331 -0.152604
C36   C     C_R   0.623044 0.132302 0.867552 -0.180982
C37   C     C_R   0.479214 0.121654 0.815476 -0.159365
C38   C     C_R   0.475712 0.168146 0.768387 -0.026224
C39   C     C_R   0.625149 0.224660 0.772594 0.034053
C40   C     C_R   0.772847 0.234317 0.823973 0.214970
C41   C     C_R   0.330259 0.158521 0.715985 0.325746
C42   C     C_R   0.335203 0.205660 0.669865 -0.224064
C43   C     C_R   0.482347 0.262070 0.673576 -0.062055
C44   C     C_R   0.628927 0.271023 0.724938 0.006467
C45   C     C_R   0.780144 0.326191 0.728642 0.157581
C46   C     C_R   0.926191 0.334580 0.779448 -0.196215
C47   C     C_R   0.922289 0.289265 0.826764 -0.181416
C48   C     C_R   0.485999 0.309413 0.626721 0.316523
C49   C     C_R   0.638126 0.364595 0.630477 -0.320973
C50   C     C_R   0.783582 0.372175 0.681576 -0.190931
H11   H     H_    0.372989 0.075384 0.811561 0.179469
H12   H     H_    0.220788 0.198069 0.631177 0.217713
H13   H     H_    0.898933 0.415148 0.685457 0.167460
H14   H     H_    0.037157 0.296859 0.865359 0.138198
H15   H     H_    0.651243 0.131905 0.437490 0.157592
C51   C     C_R   0.708883 0.404654 0.235901 0.175447
C52   C     C_R   0.686654 0.417304 0.168226 0.316254
C53   C     C_R   0.622294 0.354222 0.109329 -0.245465
C54   C     C_R   0.597458 0.278040 0.114795 -0.230741
C55   C     C_R   0.622004 0.263466 0.181185 0.125621
C56   C     C_R   0.659830 0.329213 0.244717 -0.058126
C57   C     C_R   0.614822 0.184108 0.184099 -0.263343
C58   C     C_R   0.626148 0.170581 0.251668 0.119832
C59   C     C_R   0.641586 0.236783 0.316652 0.088403
C60   C     C_R   0.654017 0.316556 0.313866 -0.259390
C61   C     C_R   0.619828 0.091674 0.255949 -0.199203
C62   C     C_R   0.628942 0.078231 0.322473 -0.123057
C63   C     C_R   0.643772 0.142697 0.385943 0.003477
C64   C     C_R   0.649567 0.221127 0.383414 -0.101966
H16   H     H_    0.560014 0.230480 0.065916 0.129259
H17   H     H_    0.607265 0.039648 0.208047 0.134166
H18   H     H_    0.624250 0.017476 0.324769 0.130553
H19   H     H_    0.662790 0.269101 0.434286 0.108944
O11   O     O_R   0.775200 0.060470 0.937800 -0.596250
O12   O     O_R   0.441110 0.093720 0.087350 -0.593872
O13   O     O_R   0.266330 0.939630 0.062280 -0.564543
C65   C     C_R   0.608158 0.115214 0.115852 0.939834
O14   O     O_R   0.445750 0.069950 0.939820 -0.602441
O15   O     O_R   0.271000 0.915700 0.913700 -0.591205
C66   C     C_R   0.615178 0.084680 0.918043 0.926900
O16   O     O_R   0.770530 0.084400 0.086380 -0.592531
O17   O     O_3   0.602830 0.949510 0.991680 -0.224322
V3    V     V_3+5 0.329710 0.009370 0.001550 1.209777
O18   O     O_R   0.940990 0.906170 0.912570 -0.591489
C67   C     C_R   0.110861 0.882758 0.885475 0.927397
O19   O     O_R   0.936350 0.929940 0.060100 -0.556960
C68   C     C_R   0.105078 0.914649 0.081722 0.976657
V4    V     V_3+5 0.829160 0.990450 0.998310 1.226140
O20   O     O_3   0.105910 0.050480 0.008320 -0.284387
N1    N     N_R   0.797064 0.853248 0.563477 0.238382
O21   O     O_R   0.759550 0.924335 0.559709 -0.351569
O22   O     O_R   0.735303 0.790489 0.512707 -0.451385
H20   H     H_    0.693507 0.862860 0.278930 0.139981
N2    N     N_R   0.441905 0.815848 0.084382 0.225902
O23   O     O_R   0.483943 0.750623 0.031992 -0.444512
O24   O     O_R   0.568323 0.873234 0.103332 -0.417096
H21   H     H_    0.574582 0.721408 0.146640 0.202049
H22   H     H_    0.881844 0.196531 0.911230 0.131083
N3    N     N_R   0.177124 0.100956 0.707771 0.231185
O25   O     O_R   0.076080 0.098316 0.763669 -0.463919
O26   O     O_R   0.117443 0.060752 0.643381 -0.358757
N4    N     N_R   0.338071 0.300014 0.574311 0.227190
O27   O     O_R   0.183182 0.343618 0.591431 -0.408942
O28   O     O_R   0.343680 0.239579 0.514694 -0.422071
H23   H     H_    0.043863 0.376304 0.782600 0.138160
N5    N     N_R   0.812193 0.462836 0.290887 0.240256
O29   O     O_R   0.732082 0.530912 0.326517 -0.439092
O30   O     O_R   0.996180 0.452941 0.296205 -0.392558
N6    N     N_R   0.736827 0.492465 0.157359 0.235582
O31   O     O_R   0.654248 0.513420 0.106631 -0.406010
O32   O     O_R   0.881115 0.535152 0.190933 -0.357281
H24   H     H_    0.604206 0.362509 0.057088 0.184059
H25   H     H_    0.387563 0.529193 0.810893 0.131122
H26   H     H_    0.969182 0.951167 0.800611 0.165407

loop_
_geom_bond_atom_site_label_1
_geom_bond_atom_site_label_2
_geom_bond_distance
_ccdc_geom_bond_type
C27   C32   1.404212 A    
O15   C67   1.297573 A    
C65   O16   1.296873 A    
O11   C66   1.299111 A    
C17   N1    1.437471 S    
C56   C60   1.434557 A    
C7    C8    1.395445 A    
C12   C15   1.413864 A    
C1    O6    1.298241 A    
C51   N5    1.423055 S    
N5    O29   1.298332 A    
N1    O22   1.300038 A    
C54   C55   1.410298 A    
C35   C36   1.401697 A    
C35   C40   1.405591 A    
C28   C29   1.412940 A    
N2    O23   1.298963 A    
O14   V3    2.001624 S    
C20   C21   1.408215 A    
O13   V3    1.999647 S    
C18   H5    1.081215 S    
C38   C41   1.419059 A    
C15   H26   1.081348 S    
C16   C17   1.395674 A    
C45   C50   1.402430 A    
C59   C64   1.415544 A    
O5    C3    1.297676 A    
C21   C22   1.407246 A    
O18   C67   1.298638 A    
C43   C48   1.417815 A    
C62   H18   1.082304 S    
C53   H24   1.083160 S    
O19   C68   1.309414 A    
C47   H14   1.083698 S    
C6    C7    1.387516 A    
C3    C20   1.484924 S    
V4    O20   2.168427 S    
O17   V3    2.149602 S    
C26   H20   1.083490 S    
C61   H17   1.082273 S    
C54   H16   1.081921 S    
O8    V2    1.997365 S    
C39   C44   1.417297 A    
C2    C60   1.499155 S    
O19   V4    1.997311 S    
C46   C47   1.397333 A    
C11   C12   1.418533 A    
C48   C49   1.416538 A    
C36   C66   1.481450 S    
O7    V1    2.149609 S    
C37   H11   1.079788 S    
C19   H6    1.077392 S    
O12   V3    2.009333 S    
C61   C62   1.392849 A    
C30   H21   1.081499 S    
C44   C45   1.411845 A    
V3    O20   1.702711 S    
C11   C67   1.489873 S    
C37   C38   1.410468 A    
O13   C68   1.295165 A    
O9    C4    1.301185 A    
C19   C24   1.400290 A    
C50   H13   1.084350 S    
C7    H2    1.080307 S    
C51   C56   1.427985 A    
N1    O21   1.301644 A    
O12   C65   1.295833 A    
C5    C6    1.390432 A    
C22   C25   1.403142 A    
O15   V3    2.005307 S    
C23   C28   1.415785 A    
H15   C63   1.082542 S    
N3    O25   1.299825 A    
C45   C46   1.403243 A    
C57   C58   1.414654 A    
C12   C13   1.424234 A    
C22   C23   1.410766 A    
O4    C2    1.297397 A    
C59   C60   1.421209 A    
C36   C37   1.404586 A    
C32   H9    1.081215 S    
O11   V4    1.997357 S    
C29   C34   1.414928 A    
C55   C56   1.424781 A    
C33   C68   1.495548 S    
C52   C53   1.394326 A    
C40   C47   1.403051 A    
C38   C39   1.417110 A    
O2    C1    1.301122 A    
C26   C27   1.404865 A    
C17   C18   1.404498 A    
C30   C31   1.394043 A    
O9    V2    1.994854 S    
C52   N6    1.442024 S    
O14   C66   1.297108 A    
C33   C34   1.422945 A    
C41   N3    1.438362 S    
C6    H25   1.082916 S    
C4    C14   1.488674 S    
C46   H23   1.083889 S    
C58   C59   1.424947 A    
O3    C4    1.294791 A    
C35   H22   1.084385 S    
O1    V2    1.996995 S    
C8    H3    1.081453 S    
C23   C24   1.409047 A    
C43   C44   1.412155 A    
O6    V2    1.996962 S    
C55   C57   1.413296 A    
O16   V4    2.002888 S    
C5    H1    1.081327 S    
C25   C26   1.400826 A    
N6    O31   1.302050 A    
O2    V1    2.001688 S    
C27   C28   1.409801 A    
N4    O28   1.299987 A    
O18   V4    1.994663 S    
C58   C61   1.414894 A    
C13   C18   1.417195 A    
C31   H10   1.081891 S    
C29   C30   1.410186 A    
C19   C20   1.401691 A    
O1    C2    1.303599 A    
C57   C65   1.486426 S    
C5    C10   1.416900 A    
C53   C54   1.385146 A    
N6    O32   1.301555 A    
N5    O30   1.300730 A    
O5    V1    1.999839 S    
O8    C3    1.302649 A    
C34   N2    1.432241 S    
C42   C43   1.405822 A    
C9    C11   1.419038 A    
C13   C14   1.422079 A    
O4    V1    2.009508 S    
O3    V1    2.005333 S    
V1    O10   1.702678 S    
C25   H8    1.083460 S    
O17   V4    1.714398 S    
C51   C52   1.417045 A    
C63   C64   1.394119 A    
C21   H7    1.081201 S    
C24   C31   1.396946 A    
N2    O24   1.298395 A    
O7    V2    1.716323 S    
C39   C40   1.416654 A    
N3    O26   1.301403 A    
C16   H4    1.082857 S    
C41   C42   1.403150 A    
C48   N4    1.432109 S    
C49   C50   1.406002 A    
C8    C9    1.414450 A    
C64   H19   1.081787 S    
C32   C33   1.406922 A    
C10   C14   1.417919 A    
C15   C16   1.389543 A    
C42   H12   1.082591 S    
C62   C63   1.389797 A    
C9    C10   1.424996 A    
C1    C49   1.489496 S    
V2    O10   2.168344 S    
N4    O27   1.299656 A    
