data_str_m2_o10_o29_f0_pcu.sym.216
_audit_creation_date              2013-03-05T15:42:03-0500
_audit_creation_method            fapswitch 2.2
_symmetry_space_group_name_H-M    P1
_symmetry_Int_Tables_number       1
_space_group_crystal_system       triclinic
_cell_length_a                    27.775609
_cell_length_b                    8.672746
_cell_length_c                    7.435226
_cell_angle_alpha                 103.010211
_cell_angle_beta                  93.979257
_cell_angle_gamma                 92.418612
_cell_volume                      1737.810243

loop_
_atom_site_label
_atom_site_type_symbol
_atom_site_description
_atom_site_fract_x
_atom_site_fract_y
_atom_site_fract_z
_atom_type_partial_charge
O1    O     O_R   0.503500 0.286120 0.619780 -0.583959
O2    O     O_R   0.496500 0.713880 0.380220 -0.584938
O3    O     O_R   0.494410 0.256780 0.308360 -0.582425
O4    O     O_R   0.505590 0.743220 0.691640 -0.582874
C1    C     C_R   0.498540 0.199649 0.453178 0.892008
C2    C     C_R   0.501458 0.800352 0.546822 0.890122
O5    O     O_R   0.434810 0.514700 0.655690 -0.590531
O6    O     O_R   0.565190 0.485300 0.344310 -0.591739
O7    O     O_R   0.425720 0.485350 0.344280 -0.582617
O8    O     O_R   0.574280 0.514650 0.655720 -0.580443
C3    C     C_R   0.407549 0.499627 0.502793 0.824787
C4    C     C_R   0.592506 0.500837 0.497270 0.829313
Cu1   Cu    Cu3+1 0.505380 0.517380 0.684380 0.968540
Cu2   Cu    Cu3+1 0.494620 0.482620 0.315620 0.966411
C5    C     C_R   0.175643 0.351336 0.497147 0.606341
C6    C     C_R   0.825211 0.651182 0.527675 0.594967
O9    O     O_2   0.197472 0.212869 0.459560 -0.497305
O10   O     O_2   0.803352 0.789739 0.557522 -0.500120
N1    N     N_R   0.202736 0.491545 0.530229 -0.451473
N2    N     N_R   0.797909 0.511038 0.486025 -0.449126
C7    C     C_R   0.181958 0.633968 0.572349 0.635649
C8    C     C_R   0.818829 0.368556 0.455255 0.628210
C9    C     C_R   0.275164 0.525796 0.363480 0.384396
C10   C     C_R   0.716685 0.472292 0.314643 0.392506
C11   C     C_R   0.325605 0.529364 0.361100 -0.268201
C12   C     C_R   0.666257 0.467803 0.321218 -0.278317
C13   C     C_R   0.333204 0.462613 0.661012 -0.196412
C14   C     C_R   0.675397 0.545805 0.656592 -0.151248
C15   C     C_R   0.283140 0.457480 0.664420 -0.092234
C16   C     C_R   0.725342 0.550622 0.651982 -0.089401
C17   C     C_R   0.253952 0.489438 0.517521 0.231769
C18   C     C_R   0.746298 0.513565 0.482939 0.222557
C19   C     C_R   0.102690 0.496237 0.536400 -0.035766
C20   C     C_R   0.898329 0.506159 0.506766 -0.039331
C21   C     C_R   0.125149 0.351064 0.499154 -0.016991
C22   C     C_R   0.875854 0.651355 0.538990 -0.022286
C23   C     C_R   0.096872 0.209092 0.462214 -0.138488
C24   C     C_R   0.904210 0.793318 0.582096 -0.142849
C25   C     C_R   0.131611 0.638967 0.575697 -0.022426
C26   C     C_R   0.869345 0.363474 0.464012 -0.028936
C27   C     C_R   0.354779 0.497883 0.508965 -0.095483
C28   C     C_R   0.645393 0.504220 0.491429 -0.111595
H1    H     H_    0.354978 0.437309 0.776344 0.167230
H2    H     H_    0.660329 0.574990 0.789763 0.185227
H3    H     H_    0.266844 0.429719 0.782293 0.203835
H4    H     H_    0.748060 0.581682 0.780692 0.207261
H5    H     H_    0.113287 0.095893 0.434054 0.188287
H6    H     H_    0.887797 0.906539 0.607910 0.186528
C29   C     C_R   0.971601 0.355752 0.483407 0.045050
C30   C     C_R   0.029498 0.646595 0.569817 0.044606
C31   C     C_R   0.978233 0.649092 0.561126 0.046851
C32   C     C_R   0.022872 0.353259 0.491582 0.046652
C33   C     C_R   0.949621 0.503656 0.517316 0.073614
C34   C     C_R   0.051459 0.498700 0.533018 0.073879
C35   C     C_R   0.941189 0.214873 0.440521 -0.209562
C36   C     C_R   0.059909 0.787480 0.613376 -0.208295
C37   C     C_R   0.891216 0.219069 0.431494 -0.128816
C38   C     C_R   0.109817 0.783335 0.615657 -0.124253
O11   O     O_2   0.790785 0.232426 0.417339 -0.484034
O12   O     O_2   0.209970 0.770130 0.609414 -0.485560
C39   C     C_R   0.046862 0.209751 0.458624 -0.207382
C40   C     C_R   0.954266 0.792630 0.593111 -0.207764
H7    H     H_    0.643278 0.436750 0.193077 0.195554
H8    H     H_    0.342103 0.556425 0.243149 0.191216
H9    H     H_    0.869705 0.107699 0.397900 0.197450
H10   H     H_    0.131315 0.894716 0.648183 0.195379
H11   H     H_    0.954535 0.098026 0.411850 0.138473
H12   H     H_    0.046608 0.904291 0.646497 0.138796
H13   H     H_    0.028278 0.094474 0.428230 0.134974
H14   H     H_    0.972886 0.907916 0.626681 0.134660
C41   C     C_2   0.497837 0.031702 0.426795 -0.354082
C42   C     C_2   0.502157 0.968298 0.573206 -0.352743
H15   H     H_    0.493768 0.959926 0.285779 0.181006
H16   H     H_    0.506226 0.040073 0.714222 0.181441
N3    N     N_2   0.486510 0.456430 0.038510 -0.215872
N4    N     N_2   0.513490 0.543570 0.961490 -0.215249
H17   H     H_    0.462172 0.378168 0.948552 0.225508
H18   H     H_    0.537827 0.621835 0.051445 0.227891
N5    N     N_R   0.737024 0.434910 0.138001 0.127018
O13   O     O_R   0.711921 0.347507 0.993847 -0.354608
O14   O     O_R   0.779360 0.495318 0.116678 -0.366164
N6    N     N_R   0.246258 0.559777 0.210267 0.125314
O15   O     O_R   0.264209 0.650935 0.111307 -0.348713
O16   O     O_R   0.203128 0.492529 0.161011 -0.360668

loop_
_geom_bond_atom_site_label_1
_geom_bond_atom_site_label_2
_geom_bond_distance
_ccdc_geom_bond_type
C1    C41   1.424375 S    
C9    N6    1.439924 S    
C13   C15   1.391580 A    
C12   H7    1.083138 S    
N3    N4    1.291235 D    
N1    C17   1.432835 S    
C2    C42   1.424375 S    
C19   C25   1.408408 A    
O1    C1    1.290412 A    
N1    C7    1.366731 A    
N4    H18   1.029142 S    
C32   C39   1.417190 A    
C40   H14   1.074968 S    
O4    Cu1   1.946960 S    
C4    C28   1.471863 S    
C5    N1    1.366699 A    
C38   H10   1.083627 S    
C23   H5    1.083524 S    
C24   H6    1.083481 S    
O6    C4    1.299950 A    
Cu1   Cu2   2.684074 S    
O2    C2    1.290413 A    
C31   C40   1.417050 A    
C5    C21   1.403519 A    
C32   C34   1.422312 A    
C7    O12   1.349814 S    
O4    C2    1.282942 A    
C11   C27   1.403598 A    
C8    O11   1.349877 S    
C41   H15   1.087818 S    
C29   C35   1.417075 A    
C25   C38   1.394219 A    
C14   H2    1.083153 S    
C30   C36   1.417062 A    
C15   H3    1.082498 S    
C31   C33   1.422364 A    
C11   H8    1.083304 S    
C9    C17   1.413828 A    
O5    C3    1.299244 A    
O7    Cu2   1.940753 S    
C10   C18   1.414612 A    
N3    H17   1.029156 S    
C13   C27   1.401777 A    
C10   N5    1.440807 S    
C23   C39   1.387726 A    
C7    C25   1.402681 A    
Cu1   N4    2.016937 S    
C6    N2    1.366882 A    
C29   C32   1.422459 A    
C8    C26   1.403118 A    
C30   C31   1.422203 A    
C30   C34   1.422423 A    
O7    C3    1.296627 A    
O3    Cu2   1.946960 S    
O8    C4    1.297278 A    
C42   H16   1.087819 S    
N2    C8    1.367020 A    
N6    O16   1.301286 A    
C35   C37   1.387430 A    
C20   C26   1.408457 A    
O1    Cu1   1.951930 S    
C22   C24   1.394400 A    
C12   C28   1.405164 A    
N5    O14   1.301395 A    
N2    C18   1.433278 S    
C39   H13   1.074979 S    
C19   C34   1.422604 A    
C5    O9    1.349708 S    
O6    Cu2   1.955511 S    
C26   C37   1.394341 A    
C21   C23   1.394479 A    
C16   H4    1.082741 S    
C10   C12   1.404119 A    
C37   H9    1.083631 S    
O3    C1    1.282939 A    
O8    Cu1   1.940755 S    
C35   H11   1.074805 S    
Cu2   N3    2.016938 S    
C14   C16   1.389177 A    
C41   C42   1.326188 D    
C15   C17   1.399778 A    
C36   H12   1.074864 S    
C6    C22   1.403239 A    
C16   C18   1.399025 A    
C29   C33   1.422507 A    
C14   C28   1.402070 A    
C19   C21   1.408658 A    
C36   C38   1.387220 A    
C3    C27   1.469164 S    
C20   C22   1.408560 A    
C9    C11   1.401471 A    
O2    Cu2   1.951931 S    
N5    O13   1.302079 A    
C13   H1    1.083155 S    
O5    Cu1   1.955511 S    
C20   C33   1.422740 A    
C6    O10   1.349855 S    
N6    O15   1.301766 A    
C24   C40   1.387411 A    
