data_str_m9_o18_o23_f0_sra.sym.76
_audit_creation_date              2012-12-11T15:30:40-0500
_audit_creation_method            fapswitch 2.2
_symmetry_space_group_name_H-M    P1
_symmetry_Int_Tables_number       1
_space_group_crystal_system       triclinic
_cell_length_a                    6.974172
_cell_length_b                    20.433664
_cell_length_c                    24.421
_cell_angle_alpha                 89.748346
_cell_angle_beta                  90.664034
_cell_angle_gamma                 89.299889
_cell_volume                      3479.65582708

loop_
_atom_site_label
_atom_site_type_symbol
_atom_type_description
_atom_site_fract_x
_atom_site_fract_y
_atom_site_fract_z
_atom_type_partial_charge
O1    O     O_R   0.507310 0.423620 0.460450 -0.534983
O2    O     O_R   0.170760 0.556060 0.437190 -0.537489
O3    O     O_R   0.004040 0.576380 0.539550 -0.519808
C1    C     C_R   0.337985 0.576662 0.421584 0.740116
O4    O     O_R   0.177350 0.422870 0.454070 -0.538859
O5    O     O_R   0.010680 0.442240 0.556560 -0.536021
C2    C     C_R   0.346895 0.399064 0.443345 0.694034
O6    O     O_R   0.500670 0.557760 0.443440 -0.537517
O7    O     O_3   0.340380 0.506510 0.533610 -0.367541
V1    V     V_3+5 0.064130 0.498790 0.493770 1.441016
O8    O     O_R   0.681170 0.443940 0.562810 -0.539304
C3    C     C_R   0.851249 0.423790 0.578529 0.720762
O9    O     O_R   0.674570 0.577130 0.545930 -0.547196
C4    C     C_R   0.843624 0.600974 0.556706 0.737497
V2    V     V_3+5 0.564560 0.501210 0.506230 1.420221
O10   O     O_3   0.838170 0.493490 0.466390 -0.370611
C5    C     C_R   0.966945 0.838485 0.910861 -0.046001
C6    C     C_R   0.857172 0.663247 0.587065 -0.138880
C7    C     C_R   0.892604 0.723311 0.908218 -0.160391
C8    C     C_R   0.930241 0.779758 0.937911 -0.166503
C9    C     C_R   0.967433 0.840266 0.853228 -0.211728
C10   C     C_R   0.929432 0.783075 0.821726 0.112299
C11   C     C_R   0.889252 0.724603 0.850744 0.139378
C12   C     C_R   0.926470 0.781924 0.762802 -0.017151
C13   C     C_R   0.877407 0.723027 0.734254 0.072067
C14   C     C_R   0.835143 0.666948 0.765653 -0.165402
C15   C     C_R   0.842924 0.667759 0.822458 -0.203461
C16   C     C_R   0.974098 0.837428 0.731630 -0.249126
C17   C     C_R   0.971877 0.836805 0.674613 0.438895
C18   C     C_R   0.930965 0.778813 0.646199 -0.038074
C19   C     C_R   0.878190 0.721556 0.675353 0.042844
C20   C     C_R   0.949654 0.777026 0.588877 -0.212977
C21   C     C_R   0.916070 0.719876 0.559486 0.393325
C22   C     C_R   0.835640 0.664477 0.644224 -0.255200
H1    H     H_    0.810849 0.623173 0.844601 0.124884
H2    H     H_    0.793866 0.619197 0.663084 0.111115
H3    H     H_    0.862208 0.678603 0.930360 0.122172
H4    H     H_    0.926391 0.777991 0.982240 0.113157
H5    H     H_    0.990548 0.887351 0.834589 0.098238
H6    H     H_    0.797345 0.620845 0.747651 0.118406
H7    H     H_    0.018391 0.882467 0.750299 0.150252
H8    H     H_    0.997914 0.819531 0.566500 0.162992
C23   C     C_3   0.789839 0.262180 0.804216 -0.366760
C24   C     C_3   0.128608 0.237296 0.777747 0.024176
C25   C     C_3   0.108919 0.286859 0.729052 -0.338814
H9    H     H_    0.807971 0.361397 0.770267 0.141200
H10   H     H_    0.841527 0.288368 0.841324 0.139357
H11   H     H_    0.181239 0.263613 0.814680 0.113826
H12   H     H_    0.156028 0.335979 0.742917 0.126361
H13   H     H_    0.204649 0.272249 0.695007 0.171824
C26   C     C_1   0.864981 0.377889 0.623952 -0.187715
C27   C     C_3   0.932203 0.205884 0.790115 0.241555
C28   C     C_3   0.768708 0.311648 0.755936 -0.329895
C29   C     C_3   0.898288 0.291171 0.707658 0.251891
C30   C     C_3   0.837623 0.221837 0.689118 -0.320298
C31   C     C_3   0.861596 0.171725 0.736915 -0.291385
C32   C     C_1   0.879278 0.339002 0.661628 -0.087031
C33   C     C_1   0.946984 0.158722 0.836804 -0.026088
C34   C     C_1   0.959466 0.120730 0.875135 -0.146059
H14   H     H_    0.726383 0.146208 0.744210 0.189474
H15   H     H_    0.962491 0.132265 0.724517 0.176401
H16   H     H_    0.685520 0.222911 0.674826 0.167908
H17   H     H_    0.647444 0.242063 0.814351 0.191910
H18   H     H_    0.616126 0.314078 0.742083 0.163711
H19   H     H_    0.926538 0.205799 0.653969 0.151310
C35   C     C_3   0.551904 0.686837 0.255252 0.344628
C36   C     C_3   0.196605 0.715712 0.256200 -0.347320
C37   C     C_3   0.222447 0.767335 0.209412 0.027464
H20   H     H_    0.528067 0.704922 0.166191 0.173505
H21   H     H_    0.073304 0.729688 0.282327 0.156860
H22   H     H_    0.161989 0.667424 0.237947 0.161684
H23   H     H_    0.190859 0.743416 0.169508 0.120049
C38   C     C_1   0.477051 0.878191 0.124643 -0.134896
C39   C     C_3   0.381957 0.709306 0.292015 0.204139
C40   C     C_3   0.566457 0.732367 0.203962 -0.424089
C41   C     C_3   0.431863 0.793050 0.209138 0.187600
C42   C     C_3   0.474497 0.825887 0.265265 -0.308537
C43   C     C_3   0.428113 0.778902 0.313530 -0.432265
C44   C     C_1   0.460854 0.839876 0.162679 0.012879
C45   C     C_1   0.357223 0.662196 0.338533 -0.039743
C46   C     C_1   0.344919 0.623159 0.376214 -0.181601
H24   H     H_    0.552024 0.777314 0.342445 0.148681
H25   H     H_    0.303548 0.798627 0.336581 0.188484
H26   H     H_    0.628015 0.839309 0.267787 0.186374
H27   H     H_    0.685626 0.692590 0.280528 0.037989
H28   H     H_    0.717323 0.747602 0.199217 0.162086
H29   H     H_    0.391086 0.872213 0.269566 0.191057
C47   C     C_R   0.462988 0.162299 0.088072 -0.041378
C48   C     C_R   0.360078 0.338346 0.411207 -0.042051
C49   C     C_R   0.390454 0.278136 0.089014 -0.115995
C50   C     C_R   0.425722 0.220757 0.060237 -0.177999
C51   C     C_R   0.466174 0.161599 0.145578 -0.191052
C52   C     C_R   0.428732 0.219532 0.176337 0.058018
C53   C     C_R   0.388893 0.278458 0.146705 0.091979
C54   C     C_R   0.425883 0.220611 0.235203 0.055957
C55   C     C_R   0.386036 0.280616 0.263448 0.023013
C56   C     C_R   0.344683 0.337100 0.231996 -0.209997
C57   C     C_R   0.344915 0.336389 0.175069 0.140220
C58   C     C_R   0.460032 0.163524 0.266827 -0.166706
C59   C     C_R   0.455081 0.164641 0.323598 -0.197101
C60   C     C_R   0.419441 0.222673 0.351631 0.137713
C61   C     C_R   0.385980 0.281947 0.322354 0.101212
C62   C     C_R   0.419578 0.221673 0.409110 -0.160737
C63   C     C_R   0.390841 0.279013 0.438558 -0.168345
C64   C     C_R   0.357047 0.339999 0.353602 -0.212515
H30   H     H_    0.337637 0.387455 0.334825 0.096456
H31   H     H_    0.395480 0.277284 0.482909 0.106823
H32   H     H_    0.481433 0.119361 0.345915 0.126601
H33   H     H_    0.361776 0.321950 0.065266 0.160004
H34   H     H_    0.420657 0.221756 0.015868 0.109850
H35   H     H_    0.493401 0.114763 0.164660 0.096999
H36   H     H_    0.307292 0.383117 0.250502 0.148138
H37   H     H_    0.490498 0.116509 0.249068 0.128116
H38   H     H_    0.444868 0.176365 0.431442 0.115675
O11   O     O_R   0.323590 0.942280 0.056590 -0.530766
O12   O     O_R   0.647030 0.077140 0.045940 -0.538564
O13   O     O_R   0.813570 0.057750 0.943430 -0.535802
C65   C     C_R   0.477414 0.101114 0.056526 0.693221
O14   O     O_R   0.653510 0.943950 0.062820 -0.531806
O15   O     O_R   0.820100 0.923600 0.960440 -0.536488
C66   C     C_R   0.485957 0.923788 0.078712 0.719946
O16   O     O_R   0.317060 0.076430 0.039590 -0.535658
O17   O     O_3   0.483830 0.993520 0.966410 -0.367487
V3    V     V_3+5 0.760140 0.001200 0.006230 1.460263
O18   O     O_R   0.149560 0.922820 0.954030 -0.538989
C67   C     C_R   0.980604 0.899074 0.943215 0.694322
O19   O     O_R   0.143080 0.056020 0.937150 -0.533639
C68   C     C_R   0.972956 0.075841 0.921222 0.718875
V4    V     V_3+5 0.259690 0.998730 0.993720 1.460294
O20   O     O_3   0.986120 0.006480 0.033580 -0.362860
I1    I     I_    0.339762 0.162937 0.760910 -0.581075
O21   O     O_3   0.525589 0.621043 0.238526 -0.546072
C69   C     C_3   0.704426 0.588137 0.234900 0.067202
H39   H     H_    0.770927 0.582402 0.276353 0.118201
H40   H     H_    0.803872 0.615138 0.207746 0.124014
C70   C     C_3   0.674317 0.520359 0.211143 -0.607563
H41   H     H_    0.613115 0.524663 0.169095 0.247423
H42   H     H_    0.813680 0.493623 0.209284 0.192949
H43   H     H_    0.574817 0.492226 0.237219 0.222188
I2    I     I_    0.016283 0.846750 0.215140 -0.554282
O22   O     O_3   0.966829 0.717448 0.504959 -0.557231
C71   C     C_3   0.801028 0.723267 0.471499 0.079817
H44   H     H_    0.759418 0.775759 0.467102 0.125852
H45   H     H_    0.676447 0.695866 0.487779 0.110092
C72   C     C_3   0.846470 0.695709 0.415292 -0.689607
H46   H     H_    0.894473 0.643938 0.419243 0.234402
H47   H     H_    0.716521 0.697189 0.388947 0.162732
H48   H     H_    0.961031 0.724604 0.395689 0.215102
I3    I     I_    0.267340 0.426272 0.135547 -0.474516
O23   O     O_3   0.026601 0.892670 0.646874 -0.558045
C73   C     C_3   0.862370 0.931027 0.633055 0.081338
H49   H     H_    0.727787 0.902313 0.628630 0.113412
H50   H     H_    0.887487 0.953959 0.592499 0.143424
C74   C     C_3   0.833609 0.985706 0.674621 -0.713973
H51   H     H_    0.968221 0.013594 0.679882 0.235874
H52   H     H_    0.718324 0.019684 0.660014 0.195410
H53   H     H_    0.791047 0.965115 0.714738 0.213837

loop_
_geom_bond_atom_site_label_1
_geom_bond_atom_site_label_2
_ccdc_geom_bond_type
C13   C19   A    
C18   C20   A    
C30   C31   S    
C60   C61   A    
O11   C66   A    
C55   C61   A    
C54   C55   A    
C4    C6    S    
O2    C1    A    
C7    C8    A    
C41   C44   S    
C1    O6    A    
C3    C26   S    
C35   H27   S    
C56   C57   A    
C23   H17   S    
O17   V3    S    
C42   C43   S    
C24   I1    S    
C14   C15   A    
C52   C53   A    
C50   H34   S    
C16   C17   A    
O13   V3    S    
C72   H46   S    
C18   C19   A    
C28   H18   S    
C54   C58   A    
C23   C27   S    
C53   C57   A    
V2    O10   S    
C35   C39   S    
C30   H16   S    
C16   H7    S    
C5    C8    A    
C61   C64   A    
C65   O16   A    
C73   C74   S    
C59   C60   A    
C7    H3    S    
C72   H47   S    
C17   O23   S    
O8    V2    S    
C43   H25   S    
C23   C28   S    
C1    C46   S    
C47   C51   A    
O21   C69   S    
C69   C70   S    
C73   H49   S    
C26   C32   T    
C11   C15   A    
O7    V1    S    
O16   V4    S    
C74   H52   S    
C24   C27   S    
C60   C62   A    
C39   C45   S    
O9    C4    A    
O17   V4    S    
C71   C72   S    
C70   H43   S    
C30   H19   S    
C49   C53   A    
C35   O21   S    
O14   C66   A    
C59   H32   S    
C36   C37   S    
C62   H38   S    
C24   H11   S    
C41   C42   S    
C74   H53   S    
C70   H42   S    
O4    C2    A    
C56   H36   S    
C45   C46   T    
C42   H26   S    
C21   O22   S    
C13   C14   A    
O14   V3    S    
C5    C9    A    
C31   H14   S    
O13   C68   A    
C7    C11   A    
C40   C41   S    
O19   V4    S    
O5    V1    S    
C17   C18   A    
C8    H4    S    
C43   H24   S    
C40   H28   S    
C58   C59   A    
C9    H5    S    
C47   C50   A    
C25   H12   S    
C37   H23   S    
C55   C56   A    
C38   C44   T    
C19   C22   A    
V3    O20   S    
C31   H15   S    
C36   C39   S    
C12   C13   A    
C6    C22   A    
C74   H51   S    
O15   C67   A    
C27   C33   S    
O1    V2    S    
C25   C29   S    
O6    V2    S    
C38   C66   S    
O9    V2    S    
C48   C63   A    
C69   H39   S    
C10   C12   A    
C37   I2    S    
C47   C65   S    
O19   C68   A    
O2    V1    S    
C72   H48   S    
C24   C25   S    
V4    O20   S    
O11   V4    S    
C29   C30   S    
O12   V3    S    
O1    C2    A    
C10   C11   A    
C12   C16   A    
C70   H41   S    
C58   H37   S    
O8    C3    A    
C51   H35   S    
C28   C29   S    
O3    C4    A    
C37   C41   S    
C64   H30   S    
O23   C73   S    
C36   H21   S    
C15   H1    S    
C20   C21   A    
C34   C68   S    
O4    V1    S    
O3    V1    S    
V1    O10   S    
O22   C71   S    
O5    C3    A    
C14   H6    S    
C49   C50   A    
O18   C67   A    
C27   C31   S    
C25   H13   S    
C35   C40   S    
H9    C28   S    
C51   C52   A    
C22   H2    S    
O12   C65   A    
H20   C40   S    
C36   H22   S    
C73   H50   S    
O7    V2    S    
C5    C67   S    
C6    C21   A    
C33   C34   T    
O18   V4    S    
C42   H29   S    
C52   C54   A    
C39   C43   S    
C48   C64   A    
C62   C63   A    
C69   H40   S    
C20   H8    S    
C71   H44   S    
C49   H33   S    
C9    C10   A    
C23   H10   S    
C29   C32   S    
C63   H31   S    
C71   H45   S    
O15   V3    S    
C57   I3    S    
C2    C48   S    
