data_str_m2_o10_o16_f0_pcu.sym.92
_audit_creation_date              2013-03-05T15:40:28-0500
_audit_creation_method            fapswitch 2.2
_symmetry_space_group_name_H-M    P1
_symmetry_Int_Tables_number       1
_space_group_crystal_system       triclinic
_cell_length_a                    7.434294
_cell_length_b                    8.687489
_cell_length_c                    13.56239
_cell_angle_alpha                 94.275507
_cell_angle_beta                  78.161897
_cell_angle_gamma                 103.04369
_cell_volume                      834.815039994

loop_
_atom_site_label
_atom_site_type_symbol
_atom_site_description
_atom_site_fract_x
_atom_site_fract_y
_atom_site_fract_z
_atom_type_partial_charge
O1    O     O_R   0.383920 0.714220 0.492660 -0.580791
O2    O     O_R   0.685730 0.742660 0.511730 -0.591642
C1    C     C_R   0.545278 0.800196 0.503067 0.874635
O3    O     O_R   0.275440 0.478800 0.636790 -0.598925
O4    O     O_R   0.577250 0.507240 0.655860 -0.589835
C2    C     C_R   0.401148 0.497361 0.693661 0.807058
Cu1   Cu    Cu3+1 0.321300 0.483160 0.488710 1.015547
Cu2   Cu    Cu3+1 0.678700 0.516840 0.511290 0.975795
O5    O     O_R   0.314270 0.257340 0.488270 -0.582223
O6    O     O_R   0.616080 0.285780 0.507340 -0.586826
O7    O     O_R   0.422750 0.492760 0.344140 -0.504573
O8    O     O_R   0.724560 0.521200 0.363210 -0.581765
C3    C     C_R   0.454696 0.199807 0.496978 0.889309
C4    C     C_R   0.599088 0.510671 0.306175 0.838624
C5    C     C_R   0.891203 0.603109 0.048059 -0.134313
H1    H     H_    0.949216 0.583540 0.193971 0.244010
H2    H     H_    0.937077 0.707682 0.862850 0.145030
H3    H     H_    0.037490 0.651633 0.016118 0.161977
C6    C     C_R   0.651585 0.522135 0.195593 -0.172506
C7    C     C_R   0.163432 0.391947 0.840406 -0.300325
C8    C     C_R   0.122573 0.328795 0.935323 0.641449
C9    C     C_R   0.257692 0.360532 0.995495 -0.208731
C10   C     C_R   0.430212 0.469394 0.966512 -0.002977
C11   C     C_R   0.476158 0.528570 0.868110 0.083692
C12   C     C_R   0.563673 0.512156 0.030702 0.025661
C13   C     C_R   0.752518 0.582178 0.989377 0.131627
C14   C     C_R   0.796464 0.641819 0.892810 -0.190307
C15   C     C_R   0.656100 0.627147 0.836723 -0.144207
C16   C     C_R   0.510390 0.502600 0.136089 0.290437
C17   C     C_R   0.841257 0.565461 0.149435 -0.154541
C18   C     C_R   0.343308 0.482474 0.803266 -0.192478
H4    H     H_    0.060041 0.357166 0.792555 0.193192
H5    H     H_    0.229433 0.292479 0.062158 0.212760
H6    H     H_    0.692688 0.692519 0.768197 0.159398
C19   C     C_2   0.570850 0.968048 0.504579 -0.350007
H7    H     H_    0.707490 0.039389 0.513170 0.180423
C20   C     C_2   0.429101 0.031947 0.495495 -0.343284
H8    H     H_    0.292462 0.960602 0.486904 0.184862
N1    N     N_2   0.947230 0.542220 0.528320 -0.221328
H9    H     H_    0.011966 0.618605 0.578560 0.217576
N2    N     N_2   0.052770 0.457780 0.471680 -0.186903
H10   H     H_    0.987621 0.380928 0.421819 0.258747
N3    N     N_R   0.324337 0.523095 0.181401 0.107826
O9    O     O_R   0.195669 0.406343 0.223770 -0.392750
O10   O     O_R   0.292178 0.665070 0.190961 -0.377129
F1    F     F_    0.955213 0.228260 0.966772 -0.651272

loop_
_geom_bond_atom_site_label_1
_geom_bond_atom_site_label_2
_geom_bond_distance
_ccdc_geom_bond_type
C5    H3    1.084018 S    
C10   C11   1.413518 A    
C20   H8    1.087760 S    
Cu2   N1    2.017474 S    
O4    Cu2   1.951779 S    
N2    H10   1.028949 S    
C3    C20   1.426584 S    
C19   H7    1.087748 S    
C1    C19   1.426517 S    
Cu2   O8    1.968654 S    
C10   C12   1.421316 A    
O2    C1    1.283980 A    
C11   C18   1.426385 A    
C15   H6    1.079584 S    
Cu1   Cu2   2.684902 S    
N1    N2    1.293186 D    
C8    C9    1.388817 A    
C16   N3    1.438267 S    
Cu1   O7    1.951779 S    
N3    O10   1.300695 A    
C13   C14   1.392723 A    
O3    Cu1   1.968654 S    
Cu2   O6    1.954828 S    
C19   C20   1.327161 D    
O8    C4    1.312940 A    
C2    C18   1.467177 S    
Cu1   N2    2.017473 S    
N3    O9    1.302849 A    
C12   C16   1.406151 A    
O4    C2    1.290214 A    
O7    C4    1.284853 A    
H1    C17   1.077736 S    
H2    C14   1.084282 S    
N1    H9    1.029175 S    
C7    C8    1.385668 A    
C5    C17   1.392102 A    
O3    C2    1.305178 A    
C8    F1    1.356495 S    
C7    H4    1.083448 S    
C14   C15   1.391027 A    
Cu1   O5    1.950272 S    
C9    H5    1.075539 S    
O5    C3    1.283960 A    
C9    C10   1.412436 A    
C5    C13   1.399989 A    
C12   C13   1.413392 A    
O1    Cu1   1.954828 S    
C6    C17   1.398313 A    
C4    C6    1.475148 S    
O6    C3    1.290776 A    
O2    Cu2   1.950272 S    
C11   C15   1.416947 A    
O1    C1    1.290779 A    
C7    C18   1.403018 A    
C6    C16   1.424302 A    
