data_str_m12_o9_o24_f0_bcu.sym.3
_audit_creation_date              2012-12-11T17:47:28-0500
_audit_creation_method            fapswitch 2.2
_symmetry_space_group_name_H-M    P1
_symmetry_Int_Tables_number       1
_space_group_crystal_system       triclinic
_cell_length_a                    14.815167
_cell_length_b                    14.913082
_cell_length_c                    15.122174
_cell_angle_alpha                 110.481967
_cell_angle_beta                  109.334777
_cell_angle_gamma                 108.555797
_cell_volume                      2572.72391586

loop_
_atom_site_label
_atom_site_type_symbol
_atom_type_description
_atom_site_fract_x
_atom_site_fract_y
_atom_site_fract_z
_atom_type_partial_charge
C1    C     C_R   0.907070 0.193846 0.991115 -0.148276
C2    C     C_R   0.833169 0.960002 0.916779 -0.231163
C3    C     C_R   0.042497 0.055643 0.668305 -0.147483
C4    C     C_R   0.733735 0.879078 0.125781 -0.157487
C5    C     C_R   0.973800 0.999911 0.698086 -0.181087
C6    C     C_R   0.804794 0.903471 0.085853 -0.209154
C7    C     C_R   0.684152 0.273868 0.169927 -0.123530
C8    C     C_R   0.376189 0.743516 0.907582 -0.116382
C9    C     C_R   0.783136 0.351082 0.267595 -0.124830
C10   C     C_R   0.303468 0.653660 0.802179 -0.162615
C11   C     C_R   0.861558 0.320717 0.306951 0.121501
C12   C     C_R   0.024862 0.749477 0.936480 -0.121633
C13   C     C_R   0.251747 0.669431 0.716981 0.120733
C14   C     C_R   0.838674 0.211994 0.248207 -0.202792
C15   C     C_R   0.283914 0.777436 0.737151 -0.159666
C16   C     C_R   0.293946 0.806590 0.204758 -0.119178
C17   C     C_R   0.683720 0.238866 0.774701 -0.132654
C18   C     C_R   0.739494 0.135399 0.150781 -0.127067
C19   C     C_R   0.362513 0.867356 0.841642 -0.118612
C20   C     C_R   0.662439 0.166341 0.111656 -0.101735
C21   C     C_R   0.407310 0.850338 0.927287 -0.089457
C22   C     C_R   0.978324 0.405714 0.501282 -0.245213
C23   C     C_R   0.293216 0.872625 0.295612 0.066482
C24   C     C_R   0.149682 0.569487 0.515265 -0.246400
C25   C     C_R   0.067101 0.492493 0.602402 0.068381
C26   C     C_R   0.055979 0.487411 0.415043 0.073575
C27   C     C_R   0.156238 0.574612 0.610955 0.023938
C28   C     C_R   0.969243 0.403565 0.407547 0.014615
C29   C     C_R   0.019856 0.999743 0.795347 0.120654
C30   C     C_R   0.771353 0.834816 0.976717 0.119718
C31   C     C_R   0.202053 0.096347 0.822931 -0.143590
C32   C     C_R   0.596389 0.718069 0.948468 -0.082351
C33   C     C_R   0.077446 0.978533 0.381037 -0.131782
C34   C     C_R   0.673869 0.207624 0.671697 0.053047
C35   C     C_R   0.744100 0.953635 0.458163 -0.096863
C36   C     C_R   0.182333 0.024567 0.393611 -0.140280
C37   C     C_R   0.669635 0.984724 0.476654 -0.107510
C38   C     C_R   0.269892 0.028466 0.472090 0.122660
C39   C     C_R   0.658436 0.068057 0.459165 0.094371
C40   C     C_R   0.223980 0.407737 0.978682 -0.142269
C41   C     C_R   0.788161 0.591523 0.094892 -0.144119
C42   C     C_R   0.252316 0.990878 0.541345 -0.183472
C43   C     C_R   0.722144 0.119444 0.422472 -0.180723
C44   C     C_R   0.146535 0.941357 0.525672 -0.126670
C45   C     C_R   0.324556 0.498946 0.058923 0.106029
C46   C     C_R   0.800416 0.091712 0.409601 -0.122484
C47   C     C_R   0.059179 0.934775 0.445394 -0.113132
C48   C     C_R   0.810154 0.007873 0.425665 -0.137935
C49   C     C_R   0.473222 0.132234 0.563807 -0.239087
C50   C     C_R   0.471621 0.027756 0.371028 -0.217430
C51   C     C_R   0.572257 0.144384 0.566265 0.063924
C52   C     C_R   0.374472 0.990070 0.374428 0.046049
C53   C     C_R   0.570511 0.090750 0.467085 0.019997
C54   C     C_R   0.372998 0.052468 0.468673 0.027458
C55   C     C_R   0.156512 0.105076 0.731496 -0.068960
C56   C     C_R   0.696905 0.500259 0.065867 0.075443
C57   C     C_R   0.628666 0.788306 0.056498 -0.089670
C58   C     C_R   0.835068 0.872765 0.929052 0.028172
C59   C     C_R   0.949902 0.957166 0.837117 0.027609
C60   C     C_R   0.134176 0.045021 0.855786 -0.174378
C61   C     C_R   0.667830 0.740928 0.908677 -0.142423
C62   C     C_R   0.899619 0.830281 0.899821 0.058709
C63   C     C_R   0.903869 0.013513 0.887830 0.058340
C64   C     C_R   0.059788 0.590825 0.314350 -0.135030
C65   C     C_R   0.000126 0.407782 0.699009 -0.160331
C66   C     C_3   0.492097 0.433639 0.985306 0.616368
C67   C     C_R   0.043923 0.496683 0.320876 0.045049
C68   C     C_3   0.540781 0.563415 0.183466 0.615785
C69   C     C_3   0.477693 0.534559 0.018943 -0.334908
C70   C     C_3   0.557987 0.462192 0.150326 -0.349273
C71   C     C_3   0.427421 0.497338 0.082567 0.068630
C72   C     C_3   0.606620 0.499747 0.085371 0.008366
C73   C     C_3   0.441435 0.394671 0.047062 -0.248597
C74   C     C_3   0.592526 0.602214 0.122062 -0.331423
C75   C     C_R   0.314654 0.591328 0.071937 -0.128078
C76   C     C_R   0.698694 0.408889 0.004175 -0.102007
C77   C     C_R   0.980345 0.407603 0.217622 -0.102549
C78   C     C_R   0.052584 0.498378 0.693527 0.061087
C79   C     C_R   0.084070 0.590745 0.786656 -0.138968
C80   C     C_R   0.205253 0.804993 0.297476 -0.140748
C81   C     C_R   0.778900 0.245949 0.686313 -0.123363
C82   C     C_R   0.001826 0.198380 0.904377 -0.147647
C83   C     C_R   0.930064 0.747621 0.025026 -0.140541
C84   C     C_R   0.938808 0.130986 0.928020 0.070956
C85   C     C_R   0.945015 0.773788 0.948834 0.059810
C86   C     C_R   0.940521 0.861871 0.837909 -0.237253
H1    H     H_    0.846800 0.165421 0.014041 0.102015
H2    H     H_    0.405968 0.729638 0.974159 0.097822
H3    H     H_    0.799644 0.434671 0.311340 0.108572
H4    H     H_    0.280690 0.571552 0.788895 0.117126
H5    H     H_    0.899628 0.188136 0.275364 0.109172
H6    H     H_    0.245134 0.792220 0.673300 0.106195
H7    H     H_    0.722923 0.052615 0.104226 0.133340
H8    H     H_    0.385771 0.950092 0.856906 0.103178
H9    H     H_    0.908864 0.344745 0.495153 0.129843
H10   H     H_    0.215511 0.632135 0.518845 0.132663
H11   H     H_    0.885895 0.964522 0.650789 0.120232
H12   H     H_    0.060960 0.762709 0.888173 0.092080
H13   H     H_    0.884099 0.977569 0.138443 0.117172
H14   H     H_    0.378934 0.310365 0.017093 0.132068
H15   H     H_    0.659505 0.687045 0.161433 0.150894
H16   H     H_    0.340588 0.832604 0.168239 0.083153
H17   H     H_    0.618650 0.223170 0.794343 0.106661
H18   H     H_    0.170638 0.043079 0.929651 0.119053
H19   H     H_    0.640466 0.689039 0.823712 0.115826
H20   H     H_    0.977268 0.895110 0.432792 0.099913
H21   H     H_    0.868057 0.984219 0.411542 0.095616
H22   H     H_    0.009625 0.973288 0.318904 0.106865
H23   H     H_    0.007812 0.062207 0.597382 0.127966
H24   H     H_    0.750018 0.887018 0.468199 0.110494
H25   H     H_    0.194241 0.052193 0.338936 0.113575
H26   H     H_    0.618368 0.941846 0.501446 0.120049
H27   H     H_    0.318223 0.991461 0.601015 0.118106
H28   H     H_    0.712652 0.182052 0.406226 0.126080
H29   H     H_    0.131972 0.906574 0.574788 0.128765
H30   H     H_    0.852870 0.133942 0.385958 0.116084
H31   H     H_    0.472966 0.177690 0.637327 0.141605
H32   H     H_    0.473812 0.988386 0.297327 0.125075
H33   H     H_    0.977615 0.821263 0.800526 0.126451
H34   H     H_    0.758595 0.932649 0.209107 0.131213
H35   H     H_    0.784319 0.992208 0.941452 0.126989
H36   H     H_    0.439011 0.559088 0.962265 0.135718
H37   H     H_    0.593577 0.438192 0.209053 0.145616
H38   H     H_    0.205328 0.323068 0.944139 0.117011
H39   H     H_    0.817302 0.675909 0.152835 0.101133
H40   H     H_    0.104361 0.675019 0.380511 0.102465
H41   H     H_    0.977822 0.323916 0.646571 0.107610
H42   H     H_    0.379444 0.676041 0.123966 0.116466
H43   H     H_    0.644774 0.324682 0.977345 0.113099
H44   H     H_    0.957778 0.323241 0.192904 0.117273
H45   H     H_    0.290000 0.130953 0.869293 0.125011
H46   H     H_    0.134343 0.675363 0.812755 0.115998
H47   H     H_    0.171782 0.826418 0.349163 0.130910
H48   H     H_    0.804352 0.244778 0.627704 0.118510
H49   H     H_    0.029088 0.178557 0.847085 0.132248
H50   H     H_    0.875817 0.755281 0.056058 0.124444
H51   H     H_    0.209477 0.148413 0.708417 0.150963
H52   H     H_    0.573392 0.772253 0.087905 0.107571
H53   H     H_    0.501182 0.412352 0.856315 0.307669
H54   H     H_    0.642362 0.664251 0.335657 0.297411
H55   H     H_    0.515110 0.647775 0.893826 0.106061
H56   H     H_    0.586286 0.107296 0.035600 0.097558
H57   H     H_    0.464851 0.919650 0.009082 0.102951
H58   H     H_    0.624373 0.297006 0.138159 0.111087
N1    N     N_R   0.947560 0.293820 0.002910 -0.040271
N2    N     N_R   0.789450 0.443190 0.997090 -0.046696
N3    N     N_R   0.945970 0.443180 0.152110 -0.043104
N4    N     N_R   0.054030 0.556820 0.847890 -0.039154
N5    N     N_R   0.151530 0.706170 0.208880 -0.040653
N6    N     N_R   0.848470 0.293830 0.791120 -0.042364
N7    N     N_R   0.004980 0.293810 0.946140 -0.040517
N8    N     N_R   0.995020 0.706190 0.053860 -0.041762
N9    N     N_R   0.052440 0.706180 0.997090 -0.042182
N10   N     N_R   0.208960 0.706170 0.152110 -0.038982
N11   N     N_R   0.791040 0.293830 0.847890 -0.040901
N12   N     N_R   0.154330 0.443160 0.946140 -0.043559
N13   N     N_R   0.845670 0.556840 0.053860 -0.043300
N14   N     N_R   0.002190 0.556820 0.208880 -0.041626
N15   N     N_R   0.997810 0.443180 0.791120 -0.038205
N16   N     N_R   0.210550 0.556810 0.002910 -0.048807
Ni1   Ni    Ni4+2 0.869690 0.369690 0.000000 0.217806
Ni2   Ni    Ni4+2 0.130310 0.630310 0.000000 0.211724
Ni3   Ni    Ni4+2 0.001390 0.369680 0.869810 0.217671
Ni4   Ni    Ni4+2 0.998610 0.630320 0.130190 0.215036
O1    O     O_3   0.464879 0.363773 0.879134 -0.788188
O2    O     O_3   0.562442 0.631514 0.287593 -0.763860

loop_
_geom_bond_atom_site_label_1
_geom_bond_atom_site_label_2
_ccdc_geom_bond_type
C75   N16   A    
C1    H1    S    
C73   H14   S    
C58   C62   A    
C56   C76   A    
C45   C71   S    
C22   H9    S    
C14   C18   A    
C1    N1    A    
C67   C77   A    
C24   C27   A    
C12   N9    A    
C65   N15   A    
C81   H48   S    
N2    N13   A    
C26   C28   A    
N11   Ni1   S    
C1    C84   A    
C15   C19   A    
N6    Ni3   S    
C62   C86   A    
C34   C51   S    
C12   C85   A    
C26   C67   S    
C65   H41   S    
C19   C21   A    
C24   C26   A    
C32   C61   A    
C38   C42   A    
C24   H10   S    
C43   H28   S    
C11   C14   A    
C48   H21   S    
C68   C74   S    
C81   N6    A    
C33   C36   A    
C18   C20   A    
C69   C71   S    
C75   H42   S    
C82   H49   S    
H53   O1    S    
C37   H26   S    
C31   H45   S    
C15   H6    S    
C3    C55   A    
C70   H37   S    
C66   C72   S    
C29   C59   S    
N12   Ni3   S    
C49   C51   A    
C22   C25   A    
C4    C57   A    
C50   C52   A    
C86   H33   S    
C34   C81   A    
C23   C80   A    
C61   H19   S    
C77   N3    A    
C12   H12   S    
C82   N7    A    
C44   C47   A    
N14   Ni4   S    
C76   N2    A    
C22   C28   A    
C40   C45   A    
C33   H22   S    
C42   C44   A    
C32   C57   A    
C36   H25   S    
C35   C48   A    
C7    H58   S    
N2    Ni1   S    
C52   C54   A    
C5    C29   A    
H54   O2    S    
C80   N5    A    
C40   H38   S    
C62   C85   S    
C46   C48   A    
C50   C53   A    
C25   C78   S    
C64   C67   A    
C41   H39   S    
N12   N16   A    
C44   H29   S    
C72   C74   S    
N3    Ni1   S    
C9    H3    S    
C71   C73   S    
C78   C79   A    
C39   C43   A    
C56   C72   S    
C66   C73   S    
C80   H47   S    
C51   C53   A    
N4    N15   A    
N16   Ni2   S    
C31   C60   A    
N5    N10   A    
C41   C56   A    
C20   H56   S    
C76   H43   S    
C42   H27   S    
C40   N12   A    
C38   C54   S    
C29   C60   A    
C82   C84   A    
C47   H20   S    
C70   C73   S    
C8    C21   A    
C32   H55   S    
C69   C74   S    
N5    Ni4   S    
N1    N7    A    
C9    C11   A    
N13   Ni4   S    
C21   H57   S    
C83   H50   S    
N8    Ni4   S    
C35   H24   S    
C74   H15   S    
C41   N13   A    
C4    C6    A    
C83   C85   A    
C5    H11   S    
C16   C23   A    
N7    Ni3   S    
N6    N11   A    
C13   C15   A    
C16   N10   A    
C33   C47   A    
C49   H31   S    
C17   C34   A    
C17   N11   A    
C11   C28   S    
C2    C63   A    
C35   C37   A    
C83   N8    A    
C2    H35   S    
C16   H16   S    
C7    C9    A    
C65   C78   A    
C66   O1    S    
C6    C30   A    
C50   H32   S    
C59   C63   A    
N10   Ni2   S    
C8    C10   A    
C13   C27   S    
C3    C5    A    
C10   C13   A    
C2    C58   A    
C79   N4    A    
C25   C27   A    
C63   C84   S    
C64   H40   S    
C55   H51   S    
C46   H30   S    
N9    Ni2   S    
C45   C75   A    
N4    Ni2   S    
C6    H13   S    
C31   C55   A    
C36   C38   A    
C17   H17   S    
C59   C86   A    
C37   C39   A    
C23   C52   S    
C39   C53   S    
N1    Ni1   S    
C69   H36   S    
C3    H23   S    
C68   C71   S    
C79   H46   S    
C30   C58   S    
C57   H52   S    
N15   Ni3   S    
C77   H44   S    
C43   C46   A    
C14   H5    S    
C66   C69   S    
N8    N9    A    
C10   H4    S    
C68   C70   S    
C7    C20   A    
C30   C61   A    
C64   N14   A    
C18   H7    S    
C4    H34   S    
C70   C72   S    
C8    H2    S    
C60   H18   S    
N3    N14   A    
C19   H8    S    
C49   C54   A    
C68   O2    S    
