data_str_m4_o17_o17_f0_acs.sym.163
_audit_creation_date              2012-12-11T14:30:07-0500
_audit_creation_method            fapswitch 2.2
_symmetry_space_group_name_H-M    P1
_symmetry_Int_Tables_number       1
_space_group_crystal_system       triclinic
_cell_length_a                    12.758891
_cell_length_b                    12.759013
_cell_length_c                    26.76424
_cell_angle_alpha                 90.000828
_cell_angle_beta                  89.999205
_cell_angle_gamma                 120.000243
_cell_volume                      3773.24053237

loop_
_atom_site_label
_atom_site_type_symbol
_atom_type_description
_atom_site_fract_x
_atom_site_fract_y
_atom_site_fract_z
_atom_type_partial_charge
C1    C     C_R   0.556360 0.457913 0.821276 0.541632
C2    C     C_R   0.899947 0.443090 0.678282 0.539700
C3    C     C_R   0.542085 0.098448 0.821276 0.541633
C4    C     C_R   0.556910 0.456852 0.678282 0.539716
C5    C     C_R   0.901553 0.443640 0.821276 0.541629
C6    C     C_R   0.543146 0.100054 0.678282 0.539715
C7    C     C_R   0.457912 0.556361 0.321277 0.541641
C8    C     C_R   0.443090 0.899939 0.178281 0.539734
C9    C     C_R   0.098447 0.542088 0.321276 0.541639
C10   C     C_R   0.456853 0.556910 0.178282 0.539725
C11   C     C_R   0.443639 0.901552 0.321277 0.541643
C12   C     C_R   0.100059 0.543147 0.178282 0.539719
C13   C     C_R   0.002431 0.500083 0.972806 0.039141
C14   C     C_R   0.503729 0.007961 0.525388 0.039169
C15   C     C_R   0.499920 0.502343 0.972808 0.039141
C16   C     C_R   0.992045 0.495766 0.525386 0.039173
C17   C     C_R   0.497645 0.997556 0.972806 0.039142
C18   C     C_R   0.504241 0.496259 0.525386 0.039169
C19   C     C_R   0.500077 0.002410 0.472809 0.039139
C20   C     C_R   0.007990 0.503739 0.025384 0.039168
C21   C     C_R   0.502339 0.499916 0.472807 0.039139
C22   C     C_R   0.495747 0.991989 0.025384 0.039163
C23   C     C_R   0.997592 0.497668 0.472808 0.039138
C24   C     C_R   0.496264 0.504242 0.025386 0.039166
C25   C     C_R   0.023898 0.700566 0.971614 -0.122704
C26   C     C_R   0.709164 0.041222 0.523111 -0.121007
C27   C     C_R   0.299433 0.323325 0.971615 -0.122704
C28   C     C_R   0.958795 0.667945 0.523116 -0.121009
C29   C     C_R   0.676656 0.976077 0.971607 -0.122700
C30   C     C_R   0.332069 0.290824 0.523109 -0.121005
C31   C     C_R   0.700546 0.023835 0.471618 -0.122710
C32   C     C_R   0.041292 0.709186 0.023107 -0.120995
C33   C     C_R   0.323295 0.299447 0.471616 -0.122707
C34   C     C_R   0.667885 0.958676 0.023100 -0.120991
C35   C     C_R   0.976179 0.676716 0.471623 -0.122713
C36   C     C_R   0.290815 0.332093 0.023108 -0.120995
C37   C     C_R   0.976304 0.583227 0.895072 -0.134636
C38   C     C_R   0.621391 0.052537 0.601679 -0.129663
C39   C     C_R   0.416772 0.393078 0.895072 -0.134631
C40   C     C_R   0.947486 0.568858 0.601681 -0.129669
C41   C     C_R   0.606911 0.023684 0.895070 -0.134632
C42   C     C_R   0.431159 0.378595 0.601676 -0.129692
C43   C     C_R   0.583220 0.976279 0.395074 -0.134619
C44   C     C_R   0.052582 0.621406 0.101675 -0.129661
C45   C     C_R   0.393062 0.416780 0.395074 -0.134622
C46   C     C_R   0.568816 0.947382 0.101671 -0.129665
C47   C     C_R   0.023727 0.606946 0.395076 -0.134624
C48   C     C_R   0.378596 0.431164 0.101676 -0.129638
C49   C     C_R   0.039268 0.522224 0.129246 -0.020178
C50   C     C_R   0.484029 0.968036 0.369218 -0.022662
C51   C     C_R   0.477778 0.517037 0.129248 -0.020166
C52   C     C_R   0.031959 0.515995 0.369217 -0.022663
C53   C     C_R   0.482962 0.960718 0.129246 -0.020174
C54   C     C_R   0.484009 0.515973 0.369218 -0.022663
C55   C     C_R   0.522215 0.039247 0.629249 -0.020185
C56   C     C_R   0.968042 0.484028 0.869216 -0.022668
C57   C     C_R   0.517038 0.477775 0.629247 -0.020197
C58   C     C_R   0.515979 0.031960 0.869218 -0.022668
C59   C     C_R   0.960761 0.482963 0.629249 -0.020193
C60   C     C_R   0.515973 0.484015 0.869218 -0.022667
C61   C     C_R   0.002842 0.596181 0.946215 0.010320
C62   C     C_R   0.610981 0.031384 0.550330 0.011131
C63   C     C_R   0.403820 0.406658 0.946216 0.010320
C64   C     C_R   0.968633 0.579599 0.550332 0.011133
C65   C     C_R   0.593327 0.997140 0.946212 0.010321
C66   C     C_R   0.420415 0.389005 0.550328 0.011128
C67   C     C_R   0.596170 0.002806 0.446218 0.010319
C68   C     C_R   0.031433 0.610998 0.050326 0.011132
C69   C     C_R   0.406641 0.403825 0.446216 0.010320
C70   C     C_R   0.579557 0.968535 0.050322 0.011129
C71   C     C_R   0.997202 0.593368 0.446219 0.010318
C72   C     C_R   0.389005 0.420424 0.050327 0.011134
C73   C     C_R   0.002957 0.408451 0.893777 -0.022366
C74   C     C_R   0.408067 0.989873 0.605960 -0.028396
C75   C     C_R   0.591553 0.594505 0.893780 -0.022369
C76   C     C_R   0.010121 0.418177 0.605956 -0.028417
C77   C     C_R   0.405489 0.997056 0.893782 -0.022372
C78   C     C_R   0.581808 0.591920 0.605958 -0.028387
C79   C     C_R   0.408461 0.002963 0.393780 -0.022377
C80   C     C_R   0.989886 0.408077 0.105956 -0.028395
C81   C     C_R   0.594504 0.591543 0.393779 -0.022376
C82   C     C_R   0.418214 0.010118 0.105959 -0.028371
C83   C     C_R   0.997024 0.405498 0.393775 -0.022371
C84   C     C_R   0.591927 0.581802 0.105958 -0.028396
C85   C     C_R   0.998964 0.402464 0.946621 -0.024360
C86   C     C_R   0.401170 0.990026 0.552944 -0.024856
C87   C     C_R   0.597539 0.596496 0.946623 -0.024359
C88   C     C_R   0.009970 0.411133 0.552939 -0.024851
C89   C     C_R   0.403496 0.001036 0.946626 -0.024360
C90   C     C_R   0.588861 0.598817 0.552942 -0.024854
C91   C     C_R   0.402470 0.998966 0.446624 -0.024357
C92   C     C_R   0.990036 0.401176 0.052940 -0.024861
C93   C     C_R   0.596500 0.597527 0.446623 -0.024358
C94   C     C_R   0.411149 0.009955 0.052944 -0.024864
C95   C     C_R   0.001025 0.403502 0.446619 -0.024357
C96   C     C_R   0.598828 0.588853 0.052943 -0.024864
C97   C     C_R   0.978253 0.299041 0.026474 -0.038709
C98   C     C_R   0.301760 0.987169 0.473882 -0.037414
C99   C     C_R   0.700962 0.679207 0.026478 -0.038712
C100  C     C_R   0.012819 0.314586 0.473873 -0.037415
C101  C     C_R   0.320795 0.021741 0.026485 -0.038705
C102  C     C_R   0.685414 0.698234 0.473882 -0.037414
C103  C     C_R   0.299046 0.978267 0.526477 -0.038702
C104  C     C_R   0.987148 0.301749 0.973879 -0.037424
C105  C     C_R   0.679226 0.700943 0.526477 -0.038699
C106  C     C_R   0.314598 0.012848 0.973890 -0.037423
C107  C     C_R   0.021719 0.320764 0.526468 -0.038705
C108  C     C_R   0.698254 0.685396 0.973883 -0.037424
Cr1   Cr    Cr6+3 0.487630 0.241180 0.750000 1.079058
Cr2   Cr    Cr6+3 0.753550 0.512370 0.750000 1.079056
Cr3   Cr    Cr6+3 0.758820 0.246450 0.750000 1.079068
Cr4   Cr    Cr6+3 0.241180 0.487630 0.250000 1.079060
Cr5   Cr    Cr6+3 0.512370 0.753550 0.250000 1.079058
Cr6   Cr    Cr6+3 0.246450 0.758820 0.250000 1.079050
H1    H     H_    0.084677 0.708361 0.119676 0.156198
H2    H     H_    0.647843 0.958758 0.375962 0.159852
H3    H     H_    0.291641 0.376304 0.119677 0.156201
H4    H     H_    0.041256 0.689094 0.375966 0.159850
H5    H     H_    0.623665 0.915274 0.119670 0.156197
H6    H     H_    0.310918 0.352156 0.375962 0.159851
H7    H     H_    0.708343 0.084621 0.619680 0.156201
H8    H     H_    0.958792 0.647856 0.875961 0.159850
H9    H     H_    0.376293 0.291643 0.619678 0.156196
H10   H     H_    0.689048 0.041190 0.875956 0.159853
H11   H     H_    0.915413 0.623734 0.619685 0.156200
H12   H     H_    0.352140 0.310939 0.875959 0.159851
H13   H     H_    0.060684 0.791964 0.041823 0.155404
H14   H     H_    0.776634 0.030247 0.451396 0.165222
H15   H     H_    0.208038 0.268703 0.041823 0.155403
H16   H     H_    0.969768 0.746394 0.451404 0.165222
H17   H     H_    0.731271 0.939283 0.041813 0.155402
H18   H     H_    0.253615 0.223361 0.451395 0.165223
H19   H     H_    0.791935 0.060594 0.541827 0.155425
H20   H     H_    0.030325 0.776658 0.951392 0.165221
H21   H     H_    0.268673 0.208052 0.541825 0.155420
H22   H     H_    0.746322 0.969652 0.951383 0.165222
H23   H     H_    0.939421 0.731341 0.541834 0.155428
H24   H     H_    0.223339 0.253662 0.951392 0.165219
O1    O     O_R   0.460870 0.120930 0.805240 -0.491862
O2    O     O_R   0.660060 0.539130 0.694760 -0.494538
O3    O     O_R   0.879070 0.339940 0.805240 -0.491858
O4    O     O_R   0.460870 0.120930 0.694760 -0.494543
O5    O     O_R   0.660060 0.539130 0.805240 -0.491859
O6    O     O_R   0.879070 0.339940 0.694760 -0.494541
O7    O     O_R   0.120930 0.460870 0.305240 -0.491858
O8    O     O_R   0.539130 0.660060 0.194760 -0.494554
O9    O     O_R   0.339940 0.879070 0.305240 -0.491861
O10   O     O_R   0.120930 0.460870 0.194760 -0.494549
O11   O     O_R   0.539130 0.660060 0.305240 -0.491862
O12   O     O_R   0.339940 0.879070 0.194760 -0.494548
O13   O     O_R   0.498910 0.350470 0.801870 -0.494236
O14   O     O_R   0.851560 0.501090 0.698130 -0.497848
O15   O     O_R   0.649530 0.148440 0.801870 -0.494231
O16   O     O_R   0.498910 0.350470 0.698130 -0.497856
O17   O     O_R   0.851560 0.501090 0.801870 -0.494237
O18   O     O_R   0.649530 0.148440 0.698130 -0.497846
O19   O     O_R   0.350470 0.498910 0.301870 -0.494233
O20   O     O_R   0.501090 0.851560 0.198130 -0.497856
O21   O     O_R   0.148440 0.649530 0.301870 -0.494239
O22   O     O_R   0.350470 0.498910 0.198130 -0.497847
O23   O     O_R   0.501090 0.851560 0.301870 -0.494236
O24   O     O_R   0.148440 0.649530 0.198130 -0.497854
O25   O     O_3   0.666667 0.333333 0.750000 -0.262851
O26   O     O_3   0.333333 0.666667 0.250000 -0.262859
C109  C     C_1   0.931595 0.300944 0.137245 0.243602
N1    N     N_1   0.884605 0.216059 0.162517 -0.245649
C110  C     C_1   0.349457 0.054439 0.364462 0.243617
N2    N     N_1   0.303330 0.096151 0.340902 -0.249642
C111  C     C_1   0.699060 0.630646 0.137247 0.243605
N3    N     N_1   0.783945 0.668542 0.162521 -0.245658
C112  C     C_1   0.945529 0.295018 0.364455 0.243614
N4    N     N_1   0.903801 0.207180 0.340893 -0.249660
C113  C     C_1   0.369487 0.068517 0.137245 0.243613
N5    N     N_1   0.331704 0.115614 0.162513 -0.245739
C114  C     C_1   0.704986 0.650550 0.364460 0.243618
N6    N     N_1   0.792825 0.696678 0.340898 -0.249641
C115  C     C_1   0.300933 0.931630 0.637250 0.243594
N7    N     N_1   0.216050 0.884691 0.662526 -0.245648
C116  C     C_1   0.054431 0.349441 0.864459 0.243604
N8    N     N_1   0.096144 0.303312 0.840898 -0.249659
C117  C     C_1   0.630652 0.699055 0.637246 0.243590
N9    N     N_1   0.668548 0.783942 0.662518 -0.245670
C118  C     C_1   0.295006 0.945606 0.864466 0.243608
N10   N     N_1   0.207165 0.903913 0.840907 -0.249639
C119  C     C_1   0.068282 0.369193 0.637248 0.243577
N11   N     N_1   0.115138 0.331153 0.662526 -0.245567
C120  C     C_1   0.650569 0.704989 0.864464 0.243605
N12   N     N_1   0.696703 0.792830 0.840904 -0.249652
C121  C     C_1   0.966437 0.193794 0.052366 0.186596
N13   N     N_1   0.957292 0.109837 0.072876 -0.230501
C122  C     C_1   0.196243 0.975114 0.448262 0.181831
N14   N     N_1   0.112718 0.966212 0.427524 -0.233637
C123  C     C_1   0.806208 0.772640 0.052371 0.186589
N15   N     N_1   0.890162 0.847452 0.072882 -0.230499
C124  C     C_1   0.024880 0.221131 0.448247 0.181844
N16   N     N_1   0.033788 0.146516 0.427506 -0.233629
C125  C     C_1   0.227371 0.033551 0.052389 0.186604
N17   N     N_1   0.152568 0.042693 0.072909 -0.230498
C126  C     C_1   0.778876 0.803754 0.448263 0.181841
N18   N     N_1   0.853499 0.887283 0.427527 -0.233636
C127  C     C_1   0.193805 0.966470 0.552369 0.186565
N19   N     N_1   0.109854 0.957340 0.572879 -0.230486
C128  C     C_1   0.975065 0.196220 0.948258 0.181866
N20   N     N_1   0.966141 0.112686 0.927520 -0.233638
C129  C     C_1   0.772669 0.806178 0.552372 0.186575
N21   N     N_1   0.847488 0.890124 0.572884 -0.230472
C130  C     C_1   0.221140 0.024923 0.948277 0.181851
N22   N     N_1   0.146519 0.033840 0.927546 -0.233646
C131  C     C_1   0.033505 0.227309 0.552353 0.186553
N23   N     N_1   0.042626 0.152478 0.572857 -0.230472
C132  C     C_1   0.803782 0.778848 0.948263 0.181853
N24   N     N_1   0.887315 0.853463 0.927527 -0.233636

loop_
_geom_bond_atom_site_label_1
_geom_bond_atom_site_label_2
_ccdc_geom_bond_type
C44   C49   A    
C4    O16   A    
C128  N20   T    
C109  N1    T    
C82   C94   A    
C18   C21   A    
C2    O6    A    
C111  N3    T    
C5    C56   S    
C11   O23   A    
C6    C55   S    
C112  N4    T    
C8    O20   A    
C50   C79   A    
C12   C49   S    
C129  N21   T    
C78   C90   A    
C31   C67   A    
C99   C108  A    
C20   C92   A    
C77   C89   A    
C30   H21   S    
C81   C114  S    
C32   H13   S    
Cr1   O13   S    
C41   C58   A    
Cr2   O14   S    
C24   C96   A    
C101  C125  S    
Cr6   O24   S    
C9    O21   A    
C98   C103  A    
C14   C62   A    
C96   C99   A    
Cr6   O9    S    
C3    O15   A    
Cr4   O7    S    
C102  C105  A    
C84   C96   A    
Cr2   O17   S    
C58   C77   A    
C77   C118  S    
C7    O11   A    
C37   C56   A    
C5    O3    A    
C48   C51   A    
C38   C55   A    
C132  N24   T    
C94   C101  A    
C83   C112  S    
C89   C106  A    
C42   H9    S    
C19   C67   A    
Cr1   O4    S    
Cr5   O20   S    
C6    O4    A    
Cr3   O18   S    
C76   C88   A    
C79   C91   A    
C13   C20   A    
C33   C69   A    
C32   C68   A    
C25   C32   A    
C97   C121  S    
C35   C71   A    
C126  N18   T    
C40   C59   A    
C113  N5    T    
C22   C94   A    
C125  N17   T    
C9    C52   S    
C31   H14   S    
C48   C72   A    
C86   C103  A    
C14   C19   A    
C42   C57   A    
C92   C97   A    
C44   H1    S    
C24   C72   A    
C2    O14   A    
Cr4   O26   S    
C75   C120  S    
C27   H24   S    
Cr4   O19   S    
C87   C108  A    
C45   C69   A    
C130  N22   T    
C18   C90   A    
C104  C128  S    
Cr5   O11   S    
C101  C106  A    
C17   C89   A    
C14   C86   A    
C84   C111  S    
Cr1   O25   S    
C1    C60   S    
C110  N2    T    
C88   C107  A    
C41   H10   S    
C2    C59   S    
C41   C65   A    
C117  N9    T    
Cr5   O23   S    
C29   C34   A    
C124  N16   T    
C21   C69   A    
C53   C82   A    
C47   H4    S    
Cr5   O8    S    
C80   C92   A    
C52   C83   A    
C8    O12   A    
C118  N10   T    
C103  C127  S    
C107  C131  S    
C1    O5    A    
C23   C71   A    
C43   H2    S    
C4    O2    A    
C81   C93   A    
Cr6   O26   S    
C114  N6    T    
C82   C113  S    
C83   C95   A    
C131  N23   T    
Cr3   O25   S    
C121  N13   T    
C25   C61   A    
C74   C86   A    
C25   H20   S    
Cr3   O15   S    
C35   H16   S    
C47   C71   A    
C30   C66   A    
C85   C104  A    
C27   C63   A    
Cr3   O6    S    
C10   O8    A    
C29   C65   A    
C39   C60   A    
C28   C64   A    
C45   H6    S    
C75   C87   A    
C15   C24   A    
C34   H17   S    
C123  N15   T    
C16   C23   A    
C11   C50   S    
C44   C68   A    
C3    O1    A    
Cr6   O12   S    
C13   C85   A    
C10   O22   A    
C80   C109  S    
C106  C130  S    
C108  C132  S    
C33   H18   S    
C15   C87   A    
C73   C85   A    
C100  C124  S    
C122  N14   T    
C28   C35   A    
C34   C70   A    
C100  C107  A    
C56   C73   A    
Cr4   O22   S    
C30   C33   A    
C95   C100  A    
C93   C102  A    
C57   C78   A    
C20   C68   A    
Cr1   O16   S    
C28   H23   S    
C90   C105  A    
C98   C122  S    
C8    C53   S    
C45   C54   A    
C37   C61   A    
Cr2   O25   S    
C43   C50   A    
C105  C129  S    
C48   H3    S    
C7    O19   A    
C27   C36   A    
C18   C66   A    
C39   C63   A    
C99   C123  S    
C60   C75   A    
C17   C65   A    
C17   C22   A    
C40   C64   A    
C49   C80   A    
C97   C104  A    
Cr1   O1    S    
C78   C117  S    
C10   C51   S    
C12   O10   A    
Cr2   O2    S    
C26   C62   A    
C120  N12   T    
C55   C74   A    
C26   H19   S    
C5    O17   A    
C102  C126  S    
Cr5   O26   S    
C11   O9    A    
C119  N11   T    
C74   C115  S    
C21   C93   A    
C16   C88   A    
C40   H11   S    
C59   C76   A    
C46   C53   A    
C9    O7    A    
C42   C66   A    
C23   C95   A    
C46   H5    S    
C1    O13   A    
C91   C98   A    
Cr2   O5    S    
Cr6   O21   S    
C46   C70   A    
C38   H7    S    
C19   C91   A    
Cr3   O3    S    
C12   O24   A    
C37   H8    S    
C73   C116  S    
C3    C58   S    
Cr4   O10   S    
C26   C31   A    
C29   H22   S    
C13   C61   A    
C127  N19   T    
C43   C67   A    
C115  N7    T    
C47   C52   A    
C39   H12   S    
C116  N8    T    
C15   C63   A    
C16   C64   A    
C7    C54   S    
C79   C110  S    
C36   H15   S    
C51   C84   A    
C22   C70   A    
C54   C81   A    
C6    O18   A    
C76   C119  S    
C36   C72   A    
C4    C57   S    
C38   C62   A    
