data_str_m2_o10_o16_f0_pcu.sym.50
_audit_creation_date              2012-10-26T19:58:20-0400
_audit_creation_method            fapswitch 2.2
_symmetry_space_group_name_H-M    P1
_symmetry_Int_Tables_number       1
_space_group_crystal_system       triclinic
_cell_length_a                    7.424176
_cell_length_b                    8.726356
_cell_length_c                    13.403091
_cell_angle_alpha                 94.077519
_cell_angle_beta                  77.399195
_cell_angle_gamma                 103.115676
_cell_volume                      825.098760167

loop_
_atom_site_label
_atom_site_type_symbol
_atom_type_description
_atom_site_fract_x
_atom_site_fract_y
_atom_site_fract_z
_atom_type_partial_charge
C1    C     C_R   0.548528 0.799863 0.498019 0.532787
C2    C     C_R   0.336969 0.494116 0.806796 -0.040256
C3    C     C_2   0.582529 0.967582 0.487584 0.198609
C4    C     C_R   0.399480 0.497845 0.694525 0.532162
C5    C     C_2   0.432835 0.032525 0.496502 -0.088466
C6    C     C_R   0.455891 0.199937 0.495994 0.580798
C7    C     C_R   0.601667 0.511074 0.305868 0.542124
C8    C     C_R   0.878120 0.679153 0.053778 -0.096778
C9    C     C_R   0.662493 0.537089 0.195790 0.021070
C10   C     C_R   0.152458 0.413827 0.848368 -0.136207
C11   C     C_R   0.096987 0.381916 0.952752 0.237554
C12   C     C_R   0.417273 0.505819 0.975547 -0.021794
C13   C     C_R   0.229234 0.424811 0.014891 -0.068002
C14   C     C_R   0.465320 0.552776 0.872261 0.010822
C15   C     C_R   0.558677 0.543728 0.035677 0.033049
C16   C     C_R   0.738161 0.639851 0.995046 0.063584
C17   C     C_R   0.774545 0.699090 0.897263 -0.135824
C18   C     C_R   0.639529 0.658355 0.837387 -0.112692
C19   C     C_R   0.527615 0.488843 0.135148 -0.107608
C20   C     C_R   0.840036 0.628859 0.154079 -0.106041
Cu1   Cu    Cu3+1 0.321300 0.483160 0.488710 0.965367
Cu2   Cu    Cu3+1 0.678700 0.516840 0.511290 0.980211
H1    H     H_    0.945782 0.667365 0.200162 0.125087
H2    H     H_    0.672420 0.714301 0.764300 0.142217
H3    H     H_    0.838472 0.284557 0.942824 0.326032
H4    H     H_    0.858177 0.989679 0.453356 0.336823
H5    H     H_    0.289317 0.961891 0.507694 0.077813
H6    H     H_    0.010912 0.617216 0.579478 0.233874
H7    H     H_    0.989128 0.382927 0.420459 0.267168
H8    H     H_    0.908144 0.777722 0.866829 0.109893
H9    H     H_    0.015324 0.752351 0.022959 0.112663
H10   H     H_    0.397435 0.410381 0.168726 0.114282
H11   H     H_    0.052840 0.371420 0.799099 0.129041
H12   H     H_    0.177956 0.396435 0.094423 0.135283
N1    N     N_2   0.947230 0.542220 0.528320 -0.259156
N2    N     N_2   0.052770 0.457780 0.471680 -0.240609
O1    O     O_R   0.383920 0.714220 0.492660 -0.530781
O2    O     O_3   0.765671 0.058323 0.467130 -0.693300
O3    O     O_R   0.685730 0.742660 0.511730 -0.518613
O4    O     O_R   0.275440 0.478800 0.636790 -0.506515
O5    O     O_R   0.577250 0.507240 0.655860 -0.503951
O6    O     O_R   0.314270 0.257340 0.488270 -0.503820
O7    O     O_R   0.616080 0.285780 0.507340 -0.426222
O8    O     O_R   0.422750 0.492760 0.344140 -0.507888
O9    O     O_R   0.724560 0.521200 0.363210 -0.508043
O10   O     O_3   0.915873 0.304341 0.995983 -0.695747

loop_
_geom_bond_atom_site_label_1
_geom_bond_atom_site_label_2
_ccdc_geom_bond_type
C15   C16   A    
C2    C4    S    
C20   H1    S    
Cu2   N1    S    
Cu1   O8    S    
C14   C18   A    
C9    C20   A    
N1    N2    D    
C12   C15   A    
C1    O1    A    
C17   C18   A    
C13   H12   S    
C8    C16   A    
Cu1   N2    S    
C7    O8    A    
C15   C19   A    
C17   H8    S    
C11   C13   A    
H7    N2    S    
C8    C20   A    
Cu1   O4    S    
C18   H2    S    
C19   H10   S    
C7    O9    A    
Cu1   Cu2   S    
C12   C14   A    
C10   H11   S    
C6    O7    A    
C6    O6    A    
C5    C6    S    
C2    C14   A    
Cu2   O5    S    
C4    O5    A    
C1    O3    A    
Cu1   O6    S    
C2    C10   A    
Cu2   O9    S    
Cu1   O1    S    
C12   C13   A    
H6    N1    S    
C10   C11   A    
C7    C9    S    
H4    O2    S    
C11   O10   S    
C3    C5    D    
C5    H5    S    
C8    H9    S    
Cu2   O3    S    
H3    O10   S    
C9    C19   A    
Cu2   O7    S    
C4    O4    A    
C3    O2    S    
C16   C17   A    
C1    C3    S    
