data_str_m3_o10_o13_f0_pcu.sym.154
_audit_creation_date              2012-12-10T16:49:24-0500
_audit_creation_method            fapswitch 2.2
_symmetry_space_group_name_H-M    P1
_symmetry_Int_Tables_number       1
_space_group_crystal_system       triclinic
_cell_length_a                    7.897491
_cell_length_b                    8.554739
_cell_length_c                    12.914348
_cell_angle_alpha                 89.679185
_cell_angle_beta                  88.927207
_cell_angle_gamma                 93.516176
_cell_volume                      870.690908251

loop_
_atom_site_label
_atom_site_type_symbol
_atom_type_description
_atom_site_fract_x
_atom_site_fract_y
_atom_site_fract_z
_atom_type_partial_charge
C1    C     C_R   0.455217 0.205885 0.497280 0.965475
C2    C     C_R   0.715983 0.516750 0.141852 0.075106
C3    C     C_R   0.597986 0.541630 0.870793 0.017170
C4    C     C_R   0.423907 0.587391 0.132766 0.036570
C5    C     C_R   0.579305 0.522294 0.977561 -0.117942
C6    C     C_R   0.426725 0.561592 0.025527 -0.079500
C7    C     C_2   0.431966 0.042033 0.495729 -0.369456
C8    C     C_2   0.568057 0.957954 0.504189 -0.369730
C9    C     C_R   0.544793 0.794126 0.502689 0.935148
C10   C     C_R   0.468610 0.511403 0.699317 0.906393
C11   C     C_R   0.535914 0.515195 0.301655 0.918089
C12   C     C_R   0.561324 0.544627 0.191190 -0.199816
C13   C     C_R   0.452039 0.534818 0.810486 -0.169050
C14   C     C_R   0.281901 0.571692 0.964637 0.400857
C15   C     C_R   0.715821 0.480213 0.037499 0.466294
C16   C     C_R   0.293137 0.552703 0.857911 0.039000
H1    H     H_    0.000175 0.618763 0.422881 0.181386
H2    H     H_    0.861443 0.616497 0.257590 0.174907
H3    H     H_    0.093662 0.664053 0.806026 0.207394
H4    H     H_    0.055896 0.466166 0.825475 0.241069
H5    H     H_    0.118005 0.491988 0.060960 0.374069
H6    H     H_    0.807649 0.344154 0.933197 0.340444
H7    H     H_    0.000034 0.382353 0.577901 0.196630
H8    H     H_    0.303283 0.991176 0.487637 0.182662
H9    H     H_    0.696744 0.008797 0.512274 0.182022
H10   H     H_    0.268107 0.771424 0.130372 0.218057
H11   H     H_    0.195767 0.612808 0.204401 0.218739
H12   H     H_    0.741864 0.692040 0.779196 0.186646
H13   H     H_    0.836399 0.644382 0.884372 0.219865
H14   H     H_    0.934404 0.641464 0.143990 0.204720
N1    N     N_2   0.054030 0.541640 0.471970 -0.173397
N2    N     N_2   0.945970 0.458360 0.528030 -0.170056
N3    N     N_3   0.301752 0.683115 0.180922 -0.434968
N4    N     N_3   0.760357 0.594907 0.826336 -0.425202
N5    N     N_3   0.875908 0.552626 0.190045 -0.411785
N6    N     N_3   0.142899 0.554186 0.797836 -0.408050
O1    O     O_R   0.609680 0.261530 0.506880 -0.608862
O2    O     O_3   0.845668 0.396647 0.997681 -0.753240
O3    O     O_R   0.390320 0.738470 0.493120 -0.612955
O4    O     O_R   0.323330 0.288220 0.488910 -0.626027
O5    O     O_R   0.676670 0.711780 0.511090 -0.641323
O6    O     O_R   0.619510 0.488830 0.661140 -0.603864
O7    O     O_R   0.380490 0.511170 0.338860 -0.603071
O8    O     O_R   0.333160 0.515520 0.643180 -0.604212
O9    O     O_R   0.666840 0.484480 0.356820 -0.625720
O10   O     O_3   0.124365 0.577148 0.008414 -0.783123
Zn1   Zn    Zn3+2 0.691200 0.482180 0.511990 0.947888
Zn2   Zn    Zn3+2 0.308800 0.517820 0.488010 0.954748

loop_
_geom_bond_atom_site_label_1
_geom_bond_atom_site_label_2
_ccdc_geom_bond_type
C2    N5    S    
C11   C12   S    
C15   O2    S    
C11   O7    A    
C8    H9    S    
O1    Zn1   S    
H2    N5    S    
H10   N3    S    
C9    O5    A    
N1    N2    D    
C3    C13   A    
C1    O1    A    
N1    Zn2   S    
C5    C15   A    
C2    C12   A    
H7    N2    S    
O5    Zn1   S    
H12   N4    S    
C7    C8    D    
C14   O10   S    
C1    C7    S    
H11   N3    S    
C2    C15   A    
C3    N4    S    
H14   N5    S    
O6    Zn1   S    
O9    Zn1   S    
C5    C6    A    
H1    N1    S    
N2    Zn1   S    
C14   C16   A    
C11   O9    A    
C6    C14   A    
C10   O8    A    
C7    H8    S    
H4    N6    S    
C9    O3    A    
C4    C6    A    
H5    O10   S    
O7    Zn2   S    
C13   C16   A    
O4    Zn2   S    
C4    N3    S    
C8    C9    S    
C10   O6    A    
C1    O4    A    
H3    N6    S    
C4    C12   A    
H13   N4    S    
C16   N6    S    
O8    Zn2   S    
O3    Zn2   S    
C3    C5    A    
C10   C13   S    
H6    O2    S    
