data_str_m2_o14_o18_f0_pcu.sym.76
_audit_creation_date              2012-10-26T18:50:27-0400
_audit_creation_method            fapswitch 2.2
_symmetry_space_group_name_H-M    P1
_symmetry_Int_Tables_number       1
_space_group_crystal_system       triclinic
_cell_length_a                    9.597814
_cell_length_b                    10.861294
_cell_length_c                    15.676119
_cell_angle_alpha                 87.249798
_cell_angle_beta                  73.628279
_cell_angle_gamma                 89.874901
_cell_volume                      1565.97685015

loop_
_atom_site_label
_atom_site_type_symbol
_atom_type_description
_atom_site_fract_x
_atom_site_fract_y
_atom_site_fract_z
_atom_type_partial_charge
C1    C     C_R   0.003750 0.262596 0.494612 0.544199
C2    C     C_R   0.230465 0.457580 0.049979 0.032794
C3    C     C_R   0.327277 0.505864 0.093865 0.033147
C4    C     C_R   0.917421 0.497200 0.671879 0.548097
C5    C     C_R   0.087255 0.425420 0.097208 -0.103485
C6    C     C_R   0.036695 0.443290 0.187668 -0.101673
C7    C     C_R   0.271881 0.526718 0.185050 -0.139490
C8    C     C_R   0.278781 0.113421 0.470475 -0.164903
C9    C     C_R   0.391976 0.051733 0.492793 -0.103953
C10   C     C_R   0.368410 0.938036 0.539925 0.287467
C11   C     C_R   0.231288 0.879958 0.553678 -0.098823
C12   C     C_R   0.672332 0.517061 0.906080 -0.028973
C13   C     C_R   0.121696 0.935810 0.520833 -0.016262
C14   C     C_R   0.137323 0.061249 0.493373 0.006401
C15   C     C_R   0.010768 0.128005 0.489873 -0.004694
C16   C     C_R   0.997471 0.736953 0.506666 0.533309
C17   C     C_R   0.882834 0.063778 0.493215 -0.154890
C18   C     C_R   0.878569 0.936486 0.500693 -0.156289
C19   C     C_R   0.997280 0.870977 0.513671 -0.011744
C20   C     C_R   0.696982 0.668506 0.384874 -0.074691
C21   C     C_R   0.649313 0.754849 0.331560 -0.160949
C22   C     C_R   0.505964 0.754723 0.331137 -0.165832
C23   C     C_R   0.775891 0.534007 0.953239 0.011768
C24   C     C_R   0.408964 0.669267 0.384914 -0.085178
C25   C     C_R   0.451102 0.583316 0.443572 0.147833
C26   C     C_R   0.600719 0.583081 0.443528 0.153892
C27   C     C_R   0.549763 0.419321 0.552463 -0.022952
C28   C     C_R   0.082478 0.500244 0.328602 0.530348
C29   C     C_R   0.402213 0.418798 0.551710 -0.017603
C30   C     C_R   0.870608 0.497798 0.769830 -0.007680
C31   C     C_R   0.129138 0.493110 0.231959 -0.011911
C32   C     C_R   0.923841 0.518111 0.910207 -0.113905
C33   C     C_R   0.969591 0.487681 0.821243 0.228970
C34   C     C_R   0.522815 0.504829 0.953203 0.026002
C35   C     C_R   0.722741 0.510500 0.813115 -0.189238
C36   C     C_3   0.842610 0.705076 0.105133 0.006979
C37   C     C_3   0.958413 0.769351 0.027973 -0.271890
C38   C     C_3   0.984632 0.902056 0.047893 -0.486279
C39   C     C_3   0.456536 0.784121 0.624818 0.008685
C40   C     C_3   0.375104 0.817115 0.719972 -0.290796
C41   C     C_3   0.354306 0.704536 0.784233 -0.471674
C42   C     C_3   0.102193 0.315576 0.779849 0.010920
C43   C     C_3   0.250970 0.258363 0.772891 -0.276768
C44   C     C_3   0.266169 0.135102 0.728772 -0.484913
C45   C     C_R   0.476396 0.525921 0.045912 -0.010077
C46   C     C_R   0.582170 0.558258 0.088424 -0.126122
C47   C     C_R   0.729971 0.562025 0.043097 0.258456
C48   C     C_R   0.420762 0.461030 0.911907 -0.131657
C49   C     C_R   0.277992 0.437841 0.959815 -0.150069
Cu1   Cu    Cu3+1 0.140660 0.499990 0.500010 0.915114
Cu2   Cu    Cu3+1 0.859340 0.500010 0.499990 0.905509
H1    H     H_    0.014971 0.383586 0.064549 0.129715
H2    H     H_    0.337126 0.568245 0.221790 0.108586
H3    H     H_    0.469765 0.820339 0.287921 0.111824
H4    H     H_    0.302903 0.674516 0.377020 0.181849
H5    H     H_    0.327530 0.351208 0.592437 0.131994
H6    H     H_    0.926650 0.415136 0.223316 0.151663
H7    H     H_    0.204202 0.401230 0.926653 0.139869
H8    H     H_    0.003605 0.523814 0.946383 0.152933
H9    H     H_    0.648163 0.516898 0.773070 0.128153
H10   H     H_    0.555885 0.573627 0.158465 0.120305
H11   H     H_    0.449730 0.436590 0.843356 0.107703
H12   H     H_    0.785935 0.111786 0.488639 0.144018
H13   H     H_    0.878442 0.709955 0.166336 0.155939
H14   H     H_    0.737426 0.754869 0.117776 0.118450
H15   H     H_    0.062032 0.718162 0.016331 0.174600
H16   H     H_    0.922878 0.769944 0.966371 0.158108
H17   H     H_    0.882812 0.955500 0.058808 0.146136
H18   H     H_    0.068255 0.946129 0.990625 0.144997
H19   H     H_    0.023837 0.904142 0.108071 0.147029
H20   H     H_    0.563149 0.745460 0.626373 0.172081
H21   H     H_    0.402267 0.709230 0.600156 0.140004
H22   H     H_    0.438453 0.888014 0.742335 0.170622
H23   H     H_    0.306157 0.199804 0.432418 0.159312
H24   H     H_    0.266860 0.855166 0.722274 0.152580
H25   H     H_    0.296582 0.629956 0.761491 0.205317
H26   H     H_    0.289280 0.729485 0.851611 0.151754
H27   H     H_    0.461524 0.670997 0.788360 0.148263
H28   H     H_    0.068764 0.296295 0.719361 0.159000
H29   H     H_    0.022427 0.269235 0.838674 0.110657
H30   H     H_    0.339244 0.321991 0.734760 0.164523
H31   H     H_    0.265312 0.241727 0.840220 0.142649
H32   H     H_    0.186351 0.067263 0.770657 0.140599
H33   H     H_    0.377574 0.100007 0.720549 0.156322
H34   H     H_    0.498289 0.095328 0.476194 0.124181
H35   H     H_    0.247601 0.145906 0.662157 0.160634
H36   H     H_    0.206434 0.794246 0.592293 0.135761
H37   H     H_    0.781596 0.889407 0.496465 0.181048
H38   H     H_    0.585064 0.352975 0.595492 0.115714
H39   H     H_    0.810488 0.672208 0.376716 0.180243
H40   H     H_    0.724915 0.821169 0.289135 0.100131
N1    N     N_R   0.648320 0.501210 0.499140 -0.250115
N2    N     N_R   0.352470 0.501290 0.499110 -0.254181
O1    O     O_R   0.118810 0.319640 0.500010 -0.517215
O2    O     O_3   0.486199 0.889789 0.565964 -0.592415
O3    O     O_3   0.109360 0.444991 0.787309 -0.584972
O4    O     O_R   0.881240 0.319660 0.500000 -0.503614
O5    O     O_R   0.055570 0.499980 0.629840 -0.461601
O6    O     O_R   0.818000 0.500010 0.629830 -0.517556
O7    O     O_R   0.118760 0.680340 0.500000 -0.532621
O8    O     O_R   0.881190 0.680360 0.499990 -0.526366
O9    O     O_R   0.182000 0.499990 0.370170 -0.522066
O10   O     O_R   0.944430 0.500020 0.370160 -0.520901
O11   O     O_3   0.830402 0.578770 0.089944 -0.596173

loop_
_geom_bond_atom_site_label_1
_geom_bond_atom_site_label_2
_ccdc_geom_bond_type
Cu2   O4    S    
C38   H19   S    
C42   H29   S    
C4    O5    A    
C27   C29   A    
C44   H32   S    
C22   H3    S    
C45   C46   A    
C24   H4    S    
C25   N2    A    
C12   C23   A    
C30   C35   A    
C42   O3    S    
C21   C22   A    
C36   C37   S    
C3    C7    A    
C41   H26   S    
C5    C6    A    
C26   N1    A    
C40   H22   S    
C18   C19   A    
C9    H34   S    
C11   H36   S    
C8    C9    A    
C39   H21   S    
C5    H1    S    
C1    C15   S    
C9    C10   A    
C6    C31   A    
C38   H18   S    
C42   H28   S    
C13   C14   A    
C6    H6    S    
C44   H35   S    
Cu1   Cu2   S    
Cu2   O6    S    
Cu1   O5    S    
C7    C31   A    
C13   C19   A    
C46   H10   S    
C23   C47   A    
C24   C25   A    
C1    O4    A    
C39   C40   S    
C36   H14   S    
Cu1   O1    S    
C25   C26   A    
C20   H39   S    
C3    C45   A    
C18   H37   S    
C49   H7    S    
C32   C33   A    
C35   H9    S    
C43   C44   S    
C37   C38   S    
C2    C49   A    
Cu2   N1    S    
C48   H11   S    
C37   H15   S    
C8    H23   S    
C17   C18   A    
C27   N1    A    
C34   C45   A    
C12   C35   A    
C39   O2    S    
C48   C49   A    
C38   H17   S    
Cu1   O9    S    
C43   H30   S    
C22   C24   A    
C2    C5    A    
C34   C48   A    
C42   C43   S    
C7    H2    S    
C12   C34   A    
C33   O3    S    
C41   H27   S    
C21   H40   S    
C15   C17   A    
C46   C47   A    
C40   C41   S    
C8    C14   A    
C47   O11   S    
C30   C33   A    
C28   C31   S    
C16   O7    A    
C44   H33   S    
C1    O1    A    
Cu1   N2    S    
C29   H5    S    
Cu2   O8    S    
Cu1   O7    S    
C40   H24   S    
C36   O11   S    
C23   C32   A    
C2    C3    A    
C17   H12   S    
C41   H25   S    
C29   N2    A    
C11   C13   A    
C28   O10   A    
C20   C26   A    
C10   O2    S    
C16   C19   S    
C37   H16   S    
C27   H38   S    
C10   C11   A    
C28   O9    A    
C16   O8    A    
C20   C21   A    
C4    O6    A    
C43   H31   S    
C39   H20   S    
C14   C15   A    
C32   H8    S    
C36   H13   S    
Cu2   O10   S    
C4    C30   S    
