data_str_m3_o40_o41_f0_fof.sym.11
_audit_creation_date              2012-12-10T16:37:47-0500
_audit_creation_method            fapswitch 2.2
_symmetry_space_group_name_H-M    P1
_symmetry_Int_Tables_number       1
_space_group_crystal_system       triclinic
_cell_length_a                    28.142733
_cell_length_b                    18.577408
_cell_length_c                    16.997301
_cell_angle_alpha                 89.999984
_cell_angle_beta                  61.60214
_cell_angle_gamma                 89.999906
_cell_volume                      7817.16587652

loop_
_atom_site_label
_atom_site_type_symbol
_atom_type_description
_atom_site_fract_x
_atom_site_fract_y
_atom_site_fract_z
_atom_type_partial_charge
C1    C     C_R   0.702266 0.269818 0.676165 0.920024
C2    C     C_R   0.084708 0.500000 0.544276 -0.024156
C3    C     C_R   0.195417 0.205077 0.903577 0.082401
C4    C     C_R   0.656542 0.393656 0.006554 -0.141332
C5    C     C_R   0.343458 0.606344 0.993446 -0.141332
C6    C     C_R   0.343459 0.393655 0.993444 -0.141334
C7    C     C_R   0.656541 0.606345 0.006556 -0.141334
C8    C     C_R   0.156542 0.893656 0.006554 -0.141332
C9    C     C_R   0.843458 0.106344 0.993446 -0.141332
C10   C     C_R   0.843459 0.893655 0.993444 -0.141334
C11   C     C_R   0.156541 0.106345 0.006556 -0.141334
C12   C     C_R   0.684308 0.373887 0.051868 -0.190022
C13   C     C_R   0.415292 1.000000 0.455724 -0.024156
C14   C     C_R   0.315692 0.626113 0.948132 -0.190023
C15   C     C_R   0.315694 0.373886 0.948130 -0.190025
C16   C     C_R   0.684306 0.626115 0.051870 -0.190025
C17   C     C_R   0.184308 0.873887 0.051868 -0.190022
C18   C     C_R   0.815692 0.126113 0.948132 -0.190023
C19   C     C_R   0.815694 0.873886 0.948130 -0.190025
C20   C     C_R   0.184306 0.126115 0.051870 -0.190025
C21   C     C_R   0.729683 0.192082 0.806271 -0.133522
C22   C     C_R   0.270317 0.807918 0.193729 -0.133521
C23   C     C_R   0.270317 0.192082 0.193729 -0.133522
C24   C     C_R   0.584708 0.000000 0.544276 -0.024156
C25   C     C_R   0.729683 0.807918 0.806271 -0.133522
C26   C     C_R   0.229683 0.692082 0.806271 -0.133522
C27   C     C_R   0.770317 0.307918 0.193729 -0.133521
C28   C     C_R   0.770317 0.692082 0.193729 -0.133522
C29   C     C_R   0.229683 0.307918 0.806271 -0.133522
C30   C     C_R   0.754693 0.167755 0.855132 -0.182959
C31   C     C_R   0.245307 0.832245 0.144868 -0.182960
C32   C     C_R   0.245307 0.167755 0.144869 -0.182962
C33   C     C_R   0.754693 0.832245 0.855131 -0.182962
C34   C     C_R   0.254693 0.667755 0.855132 -0.182959
C35   C     C_R   0.075905 0.371290 0.565110 0.424757
C36   C     C_R   0.745307 0.332246 0.144868 -0.182960
C37   C     C_R   0.745307 0.667755 0.144869 -0.182962
C38   C     C_R   0.254693 0.332245 0.855131 -0.182962
C39   C     C_R   0.081619 0.085935 0.927243 0.936851
C40   C     C_R   0.918381 0.914065 0.072757 0.936851
C41   C     C_R   0.918381 0.085935 0.072757 0.936850
C42   C     C_R   0.081619 0.914065 0.927243 0.936852
C43   C     C_R   0.581619 0.585935 0.927243 0.936851
C44   C     C_R   0.418381 0.414065 0.072757 0.936851
C45   C     C_R   0.418381 0.585935 0.072757 0.936850
C46   C     C_R   0.924095 0.628710 0.434890 0.424757
C47   C     C_R   0.581619 0.414065 0.927243 0.936852
C48   C     C_R   0.538643 0.131427 0.531390 -0.152520
C49   C     C_R   0.461357 0.868573 0.468610 -0.152520
C50   C     C_R   0.461358 0.131426 0.468605 -0.152520
C51   C     C_R   0.538642 0.868573 0.531395 -0.152520
C52   C     C_R   0.038643 0.631427 0.531390 -0.152520
C53   C     C_R   0.961357 0.368573 0.468610 -0.152520
C54   C     C_R   0.961358 0.631426 0.468605 -0.152520
C55   C     C_R   0.038642 0.368574 0.531395 -0.152520
C56   C     C_R   0.519481 0.197207 0.514871 0.357791
C57   C     C_R   0.924094 0.371290 0.434894 0.424758
C58   C     C_R   0.480519 0.802793 0.485129 0.357791
C59   C     C_R   0.480522 0.197207 0.485120 0.357792
C60   C     C_R   0.519478 0.802793 0.514880 0.357792
C61   C     C_R   0.019481 0.697207 0.514871 0.357791
C62   C     C_R   0.980519 0.302793 0.485129 0.357791
C63   C     C_R   0.980522 0.697207 0.485120 0.357792
C64   C     C_R   0.019478 0.302793 0.514880 0.357792
C65   C     C_R   0.479947 0.065879 0.486253 -0.034744
C66   C     C_R   0.520053 0.934120 0.513747 -0.034744
C67   C     C_R   0.520054 0.065880 0.513745 -0.034744
C68   C     C_R   0.075906 0.628710 0.565106 0.424758
C69   C     C_R   0.479946 0.934120 0.486255 -0.034744
C70   C     C_R   0.979947 0.565879 0.486253 -0.034744
C71   C     C_R   0.020053 0.434120 0.513747 -0.034744
C72   C     C_R   0.020054 0.565880 0.513745 -0.034744
C73   C     C_R   0.979946 0.434120 0.486255 -0.034744
C74   C     C_R   0.959309 0.500000 0.474052 0.044116
C75   C     C_R   0.040691 0.500000 0.525948 0.044116
C76   C     C_R   0.459309 1.000000 0.474052 0.044116
C77   C     C_R   0.540691 0.000000 0.525948 0.044116
C78   C     C_R   0.893555 0.434533 0.445822 -0.024989
C79   C     C_R   0.575905 0.871290 0.565110 0.424757
C80   C     C_R   0.106445 0.565466 0.554178 -0.024989
C81   C     C_R   0.106445 0.434534 0.554179 -0.024989
C82   C     C_R   0.893555 0.565466 0.445821 -0.024989
C83   C     C_R   0.393555 0.934533 0.445822 -0.024989
C84   C     C_R   0.606445 0.065466 0.554178 -0.024989
C85   C     C_R   0.606445 0.934534 0.554179 -0.024989
C86   C     C_R   0.393555 0.065466 0.445821 -0.024989
C87   C     C_R   0.842572 0.435206 0.446300 -0.085749
C88   C     C_R   0.157428 0.564793 0.553700 -0.085749
C89   C     C_R   0.157428 0.435207 0.553700 -0.085748
C90   C     C_R   0.424095 0.128710 0.434890 0.424757
C91   C     C_R   0.842572 0.564793 0.446300 -0.085748
C92   C     C_R   0.342572 0.935207 0.446300 -0.085749
C93   C     C_R   0.657428 0.064793 0.553700 -0.085749
C94   C     C_R   0.657428 0.935207 0.553700 -0.085748
C95   C     C_R   0.342572 0.064793 0.446300 -0.085748
C96   C     C_R   0.819029 0.500000 0.444023 -0.257420
C97   C     C_R   0.180971 0.500000 0.555977 -0.257420
C98   C     C_R   0.319029 1.000000 0.444023 -0.257420
C99   C     C_R   0.680971 0.000000 0.555977 -0.257420
C100  C     C_R   0.424094 0.871290 0.434894 0.424758
C101  C     C_R   0.297733 0.730181 0.323835 0.920024
C102  C     C_R   0.575906 0.128710 0.565106 0.424758
C103  C     C_R   0.722517 0.271985 0.952305 0.038209
C104  C     C_R   0.277483 0.728015 0.047695 0.038209
C105  C     C_R   0.277483 0.271985 0.047695 0.038209
C106  C     C_R   0.722517 0.728015 0.952305 0.038209
C107  C     C_R   0.222517 0.771985 0.952305 0.038209
C108  C     C_R   0.777483 0.228015 0.047695 0.038209
C109  C     C_R   0.777483 0.771985 0.047695 0.038209
C110  C     C_R   0.222517 0.228015 0.952305 0.038209
C111  C     C_R   0.753883 0.208481 0.926328 0.044497
C112  C     C_R   0.297733 0.269819 0.323835 0.920026
C113  C     C_R   0.246117 0.791519 0.073672 0.044497
C114  C     C_R   0.246117 0.208481 0.073673 0.044497
C115  C     C_R   0.753883 0.791519 0.926327 0.044497
C116  C     C_R   0.253883 0.708481 0.926328 0.044497
C117  C     C_R   0.746117 0.291519 0.073672 0.044497
C118  C     C_R   0.746117 0.708481 0.073673 0.044497
C119  C     C_R   0.253883 0.291519 0.926327 0.044497
C120  C     C_R   0.782152 0.187094 0.973400 0.050029
C121  C     C_R   0.217848 0.812906 0.026600 0.050029
C122  C     C_R   0.217848 0.187095 0.026601 0.050029
C123  C     C_R   0.702266 0.730181 0.676165 0.920026
C124  C     C_R   0.782152 0.812905 0.973399 0.050029
C125  C     C_R   0.282152 0.687095 0.973400 0.050029
C126  C     C_R   0.717848 0.312906 0.026600 0.050029
C127  C     C_R   0.717848 0.687095 0.026601 0.050029
C128  C     C_R   0.282152 0.312905 0.973399 0.050029
C129  C     C_R   0.660413 0.354210 0.933238 0.022098
C130  C     C_R   0.339587 0.645790 0.066762 0.022098
C131  C     C_R   0.339587 0.354209 0.066761 0.022098
C132  C     C_R   0.660413 0.645791 0.933239 0.022099
C133  C     C_R   0.160413 0.854210 0.933238 0.022098
C134  C     C_R   0.202266 0.769818 0.676165 0.920024
C135  C     C_R   0.839587 0.145790 0.066762 0.022098
C136  C     C_R   0.839587 0.854209 0.066761 0.022098
C137  C     C_R   0.160413 0.145791 0.933239 0.022099
C138  C     C_R   0.631687 0.373380 0.886403 -0.225710
C139  C     C_R   0.368313 0.626620 0.113597 -0.225710
C140  C     C_R   0.368313 0.373379 0.113596 -0.225710
C141  C     C_R   0.631687 0.626621 0.886404 -0.225710
C142  C     C_R   0.131687 0.873380 0.886403 -0.225710
C143  C     C_R   0.868313 0.126620 0.113597 -0.225710
C144  C     C_R   0.868313 0.873380 0.113596 -0.225710
C145  C     C_R   0.797734 0.230181 0.323835 0.920024
C146  C     C_R   0.131687 0.126621 0.886404 -0.225710
C147  C     C_R   0.651131 0.352496 0.798943 0.311907
C148  C     C_R   0.348869 0.647505 0.201057 0.311907
C149  C     C_R   0.348869 0.352495 0.201057 0.311907
C150  C     C_R   0.651131 0.647505 0.798943 0.311907
C151  C     C_R   0.151131 0.852495 0.798943 0.311907
C152  C     C_R   0.848869 0.147505 0.201057 0.311907
C153  C     C_R   0.848869 0.852495 0.201057 0.311907
C154  C     C_R   0.151131 0.147505 0.798943 0.311907
C155  C     C_R   0.683102 0.290896 0.769443 -0.212323
C156  C     C_R   0.797734 0.769819 0.323835 0.920026
C157  C     C_R   0.316898 0.709104 0.230557 -0.212323
C158  C     C_R   0.316898 0.290896 0.230557 -0.212323
C159  C     C_R   0.683102 0.709104 0.769443 -0.212323
C160  C     C_R   0.183102 0.790896 0.769443 -0.212323
C161  C     C_R   0.816898 0.209104 0.230557 -0.212323
C162  C     C_R   0.816898 0.790896 0.230557 -0.212323
C163  C     C_R   0.183102 0.209104 0.769443 -0.212323
C164  C     C_R   0.702483 0.258303 0.825705 0.010916
C165  C     C_R   0.297517 0.741697 0.174295 0.010916
C166  C     C_R   0.297517 0.258303 0.174295 0.010916
C167  C     C_R   0.202266 0.230181 0.676165 0.920026
C168  C     C_R   0.702483 0.741697 0.825705 0.010916
C169  C     C_R   0.202483 0.758303 0.825705 0.010916
C170  C     C_R   0.797517 0.241697 0.174295 0.010916
C171  C     C_R   0.797517 0.758303 0.174295 0.010916
C172  C     C_R   0.202483 0.241697 0.825705 0.010916
C173  C     C_R   0.691587 0.129137 0.533727 0.893704
C174  C     C_R   0.308413 0.870863 0.466273 0.893704
C175  C     C_R   0.308413 0.129137 0.466272 0.893704
C176  C     C_R   0.691587 0.870863 0.533728 0.893704
C177  C     C_R   0.191587 0.629137 0.533727 0.893704
C178  C     C_R   0.915292 0.500000 0.455724 -0.024156
C179  C     C_R   0.808413 0.370863 0.466273 0.893704
C180  C     C_R   0.808413 0.629137 0.466272 0.893704
C181  C     C_R   0.191587 0.370863 0.533728 0.893704
C182  C     C_R   0.695417 0.294924 0.903577 0.082400
C183  C     C_R   0.304583 0.705076 0.096423 0.082401
C184  C     C_R   0.304583 0.294923 0.096423 0.082401
C185  C     C_R   0.695417 0.705077 0.903577 0.082401
C186  C     C_R   0.195417 0.794924 0.903577 0.082400
C187  C     C_R   0.804583 0.205076 0.096423 0.082401
C188  C     C_R   0.804583 0.794923 0.096423 0.082401
Cl1   Cl    Cl    0.048763 0.219360 0.518971 -0.442551
Cl2   Cl    Cl    0.932706 0.688305 0.347386 -0.507833
Cl3   Cl    Cl    0.932707 0.311693 0.347390 -0.507833
Cl4   Cl    Cl    0.067293 0.688307 0.652610 -0.507833
Cl5   Cl    Cl    0.567294 0.811695 0.652613 -0.507833
Cl6   Cl    Cl    0.432706 0.188305 0.347386 -0.507833
Cl7   Cl    Cl    0.432707 0.811693 0.347390 -0.507833
Cl8   Cl    Cl    0.567293 0.188307 0.652610 -0.507833
Cl9   Cl    Cl    0.641861 0.412679 0.725518 -0.468497
Cl10  Cl    Cl    0.358139 0.587320 0.274482 -0.468498
Cl11  Cl    Cl    0.358138 0.412679 0.274482 -0.468497
Cl12  Cl    Cl    0.951237 0.780640 0.481029 -0.442551
Cl13  Cl    Cl    0.641861 0.587321 0.725518 -0.468497
Cl14  Cl    Cl    0.141861 0.912679 0.725518 -0.468497
Cl15  Cl    Cl    0.858139 0.087321 0.274482 -0.468498
Cl16  Cl    Cl    0.858138 0.912679 0.274482 -0.468497
Cl17  Cl    Cl    0.141862 0.087321 0.725518 -0.468497
Cl18  Cl    Cl    0.951231 0.219361 0.481044 -0.442555
Cl19  Cl    Cl    0.048769 0.780639 0.518956 -0.442555
Cl20  Cl    Cl    0.548763 0.719360 0.518971 -0.442551
Cl21  Cl    Cl    0.451237 0.280640 0.481029 -0.442551
Cl22  Cl    Cl    0.451231 0.719361 0.481044 -0.442555
Cl23  Cl    Cl    0.548769 0.280639 0.518956 -0.442555
Cl24  Cl    Cl    0.067294 0.311695 0.652613 -0.507833
H1    H     H_    0.779756 0.500000 0.446737 0.202106
H2    H     H_    0.866056 0.057481 0.971402 0.153889
H3    H     H_    0.866057 0.942518 0.971400 0.153891
H4    H     H_    0.133943 0.057483 0.028601 0.153892
H5    H     H_    0.677871 0.407798 0.107400 0.141733
H6    H     H_    0.322129 0.592202 0.892599 0.141733
H7    H     H_    0.322131 0.407796 0.892596 0.141734
H8    H     H_    0.677869 0.592205 0.107404 0.141734
H9    H     H_    0.177871 0.907798 0.107400 0.141733
H10   H     H_    0.822129 0.092202 0.892599 0.141733
H11   H     H_    0.822131 0.907796 0.892596 0.141734
H12   H     H_    0.220244 0.500000 0.553263 0.202106
H13   H     H_    0.177869 0.092205 0.107404 0.141734
H14   H     H_    0.731061 0.157143 0.754402 0.166618
H15   H     H_    0.268939 0.842857 0.245598 0.166618
H16   H     H_    0.268939 0.157143 0.245598 0.166618
H17   H     H_    0.731061 0.842857 0.754402 0.166618
H18   H     H_    0.231061 0.657143 0.754402 0.166618
H19   H     H_    0.768939 0.342857 0.245598 0.166618
H20   H     H_    0.768939 0.657143 0.245598 0.166618
H21   H     H_    0.231061 0.342857 0.754402 0.166618
H22   H     H_    0.774153 0.116139 0.835152 0.141607
H23   H     H_    0.279756 0.000000 0.446737 0.202106
H24   H     H_    0.225847 0.883861 0.164848 0.141607
H25   H     H_    0.225847 0.116139 0.164847 0.141607
H26   H     H_    0.774153 0.883861 0.835152 0.141607
H27   H     H_    0.274153 0.616139 0.835152 0.141607
H28   H     H_    0.725847 0.383861 0.164848 0.141607
H29   H     H_    0.725847 0.616139 0.164847 0.141607
H30   H     H_    0.274153 0.383861 0.835152 0.141607
H31   H     H_    0.720244 1.000000 0.553263 0.202106
H32   H     H_    0.633944 0.442519 0.028597 0.153889
H33   H     H_    0.366056 0.557481 0.971402 0.153889
H34   H     H_    0.366057 0.442517 0.971400 0.153891
H35   H     H_    0.633943 0.557483 0.028601 0.153892
H36   H     H_    0.133944 0.942519 0.028597 0.153889
O1    O     O_R   0.746490 0.236330 0.638080 -0.654639
O2    O     O_R   0.325830 0.813840 0.483730 -0.583605
O3    O     O_R   0.325830 0.186160 0.483730 -0.583607
O4    O     O_R   0.674170 0.813840 0.516270 -0.583607
O5    O     O_R   0.174170 0.686160 0.516270 -0.583605
O6    O     O_R   0.825830 0.313840 0.483730 -0.583605
O7    O     O_R   0.825830 0.686160 0.483730 -0.583607
O8    O     O_R   0.174170 0.313840 0.516270 -0.583607
O9    O     O_R   0.739960 0.127620 0.525000 -0.622169
O10   O     O_R   0.260040 0.872380 0.475000 -0.622169
O11   O     O_R   0.260040 0.127620 0.475000 -0.622168
O12   O     O_R   0.253510 0.763670 0.361920 -0.654639
O13   O     O_R   0.739960 0.872380 0.525000 -0.622168
O14   O     O_R   0.239960 0.627620 0.525000 -0.622169
O15   O     O_R   0.760040 0.372380 0.475000 -0.622169
O16   O     O_R   0.760040 0.627620 0.475000 -0.622168
O17   O     O_R   0.239960 0.372380 0.525000 -0.622168
O18   O     O_R   0.680700 0.294870 0.629350 -0.517284
O19   O     O_R   0.319300 0.705130 0.370650 -0.517284
O20   O     O_R   0.319300 0.294870 0.370650 -0.517282
O21   O     O_R   0.680700 0.705130 0.629350 -0.517282
O22   O     O_R   0.180700 0.794870 0.629350 -0.517284
O23   O     O_R   0.253510 0.236330 0.361920 -0.654640
O24   O     O_R   0.819300 0.205130 0.370650 -0.517284
O25   O     O_R   0.819300 0.794870 0.370650 -0.517282
O26   O     O_R   0.180700 0.205130 0.629350 -0.517282
O27   O     O_R   0.062020 0.072840 0.007170 -0.654220
O28   O     O_R   0.937980 0.927160 0.992830 -0.654219
O29   O     O_R   0.937980 0.072840 0.992830 -0.654217
O30   O     O_R   0.062020 0.927160 0.007170 -0.654217
O31   O     O_R   0.562020 0.572840 0.007170 -0.654220
O32   O     O_R   0.437980 0.427160 0.992830 -0.654219
O33   O     O_R   0.437980 0.572840 0.992830 -0.654217
O34   O     O_R   0.746490 0.763670 0.638080 -0.654640
O35   O     O_R   0.562020 0.427160 0.007170 -0.654217
O36   O     O_R   0.947860 0.073950 0.109290 -0.539200
O37   O     O_R   0.052140 0.926050 0.890710 -0.539200
O38   O     O_R   0.052140 0.073950 0.890710 -0.539200
O39   O     O_R   0.947860 0.926050 0.109290 -0.539199
O40   O     O_R   0.447860 0.573950 0.109290 -0.539200
O41   O     O_R   0.552140 0.426050 0.890710 -0.539200
O42   O     O_R   0.552140 0.573950 0.890710 -0.539200
O43   O     O_R   0.447860 0.426050 0.109290 -0.539199
O44   O     O_R   0.246490 0.736330 0.638080 -0.654639
O45   O     O_R   0.753510 0.263670 0.361920 -0.654639
O46   O     O_R   0.753510 0.736330 0.361920 -0.654640
O47   O     O_R   0.246490 0.263670 0.638080 -0.654640
O48   O     O_R   0.674170 0.186160 0.516270 -0.583605
Zn1   Zn    Zn3+2 0.792340 0.208750 0.507670 1.143256
Zn2   Zn    Zn3+2 0.494040 0.500000 0.919480 1.102523
Zn3   Zn    Zn3+2 0.005960 0.000000 0.080520 1.102523
Zn4   Zn    Zn3+2 0.994040 0.000000 0.919480 1.102523
Zn5   Zn    Zn3+2 0.207660 0.791250 0.492330 1.143256
Zn6   Zn    Zn3+2 0.207660 0.208750 0.492330 1.143252
Zn7   Zn    Zn3+2 0.792340 0.791250 0.507670 1.143252
Zn8   Zn    Zn3+2 0.292340 0.708750 0.507670 1.143256
Zn9   Zn    Zn3+2 0.707660 0.291250 0.492330 1.143256
Zn10  Zn    Zn3+2 0.707660 0.708750 0.492330 1.143252
Zn11  Zn    Zn3+2 0.292340 0.291250 0.507670 1.143252
Zn12  Zn    Zn3+2 0.505960 0.500000 0.080520 1.102523

loop_
_geom_bond_atom_site_label_1
_geom_bond_atom_site_label_2
_ccdc_geom_bond_type
O32   Zn2   S    
C108  C120  A    
O17   Zn11  S    
O5    Zn5   S    
C88   C177  S    
C26   H18   S    
O13   Zn7   S    
O14   Zn8   S    
C50   C59   A    
C41   C143  S    
C52   C61   A    
C180  O16   A    
C10   H3    S    
C12   C126  A    
C54   C63   A    
C40   O28   A    
C58   C60   A    
C43   O42   A    
C45   C139  S    
C61   C63   A    
C103  C126  A    
C95   C175  S    
C62   C64   A    
C131  C140  A    
C91   C96   A    
C179  O6    A    
C179  O15   A    
C50   C90   A    
C162  C171  A    
C170  C187  A    
C70   C74   A    
C4    C12   A    
C147  C155  A    
C24   C85   A    
C112  O20   A    
O8    Zn6   S    
C88   C97   A    
C11   H4    S    
C119  C128  A    
C39   O38   A    
C49   C69   A    
O26   Zn6   S    
O27   Zn3   S    
C109  C118  A    
C23   H16   S    
C173  O48   A    
C11   C20   A    
C150  C159  A    
C165  C183  A    
C137  C146  A    
C166  C184  A    
O15   Zn9   S    
C86   C90   A    
C71   C73   A    
C106  C127  A    
C82   C91   A    
C51   C66   A    
C89   C181  S    
C142  C151  A    
C173  O9    A    
C52   C72   A    
C131  C184  A    
C105  C114  A    
C54   C70   A    
C82   C178  A    
C36   C117  A    
C29   H21   S    
C7    C132  A    
C112  C158  S    
C149  Cl11  S    
C38   C119  A    
C5    C130  A    
C83   C100  A    
C27   C36   A    
C47   O41   A    
C79   C85   A    
C66   C77   A    
O11   Zn6   S    
C57   C78   A    
C6    H34   S    
O33   Zn2   S    
C176  O4    A    
O46   Zn10  S    
O36   Zn3   S    
C8    C17   A    
C56   C59   A    
C106  C115  A    
C80   C88   A    
O6    Zn1   S    
C145  C161  S    
O2    Zn8   S    
C93   C173  S    
C84   C93   A    
C105  C184  A    
O7    Zn7   S    
C17   H9    S    
C86   C95   A    
C20   H13   S    
C24   C77   A    
C104  C183  A    
C43   O31   A    
O3    Zn11  S    
O43   Zn12  S    
C14   H6    S    
C2    C81   A    
C150  Cl13  S    
C62   Cl18  S    
C55   C71   A    
C2    C75   A    
C78   C87   A    
C134  C160  S    
C84   C102  A    
C67   C77   A    
C133  C142  A    
C45   O40   A    
C123  C159  S    
C130  C183  A    
C37   C118  A    
C1    O1    A    
C32   H25   S    
C3    C110  A    
C7    H35   S    
C69   C76   A    
C85   C94   A    
O40   Zn12  S    
C33   H26   S    
C46   C82   A    
C29   C38   A    
C152  Cl15  S    
C149  C158  A    
C28   H20   S    
C20   C122  A    
C152  C161  A    
C135  C143  A    
C48   C67   A    
C136  C188  A    
C72   C75   A    
C112  O23   A    
C135  C187  A    
C180  O7    A    
C141  C150  A    
O22   Zn5   S    
C25   C168  A    
C139  C148  A    
C37   H29   S    
C104  C125  A    
C56   Cl23  S    
C157  C165  A    
C92   C174  S    
C35   Cl24  S    
C181  O8    A    
C175  O3    A    
C91   C180  S    
C47   O35   A    
C9    C135  A    
C116  C125  A    
O37   Zn4   S    
C118  C127  A    
C15   H7    S    
O20   Zn11  S    
O35   Zn12  S    
C117  C126  A    
C39   O27   A    
C132  C141  A    
C108  C117  A    
C110  C119  A    
C174  O10   A    
C134  O22   A    
C79   Cl5   S    
C44   O32   A    
C28   C37   A    
C47   C138  S    
C16   H8    S    
C148  C157  A    
C50   C65   A    
C51   C79   A    
C107  C116  A    
C154  Cl17  S    
C41   O29   A    
C104  C113  A    
C9    C18   A    
C113  C121  A    
C51   C60   A    
C140  C149  A    
C31   C113  A    
C59   Cl21  S    
C25   C33   A    
O47   Zn11  S    
C129  C182  A    
C36   H28   S    
C44   O43   A    
C73   C74   A    
O42   Zn2   S    
C41   O36   A    
C64   Cl1   S    
C21   H14   S    
C107  C186  A    
C25   H17   S    
C65   C76   A    
O39   Zn3   S    
C171  C188  A    
C145  O24   A    
C134  O44   A    
C169  C186  A    
C57   Cl3   S    
C42   O30   A    
C3    C172  A    
O48   Zn9   S    
C63   Cl12  S    
C103  C111  A    
C1    O18   A    
C65   C67   A    
C160  C169  A    
C3    C137  A    
C93   C99   A    
C81   C89   A    
C123  O21   A    
C8    C133  A    
C101  C157  S    
C44   C140  S    
C21   C164  A    
O19   Zn8   S    
C130  C139  A    
C167  O26   A    
O28   Zn4   S    
O12   Zn5   S    
C33   C115  A    
C19   H11   S    
C53   C57   A    
C60   Cl20  S    
C96   H1    S    
C132  C185  A    
C177  O14   A    
O29   Zn4   S    
O30   Zn3   S    
C90   Cl6   S    
C10   C19   A    
C48   C102  A    
C46   C54   A    
C30   H22   S    
C34   H27   S    
C27   C170  A    
C5    C14   A    
O34   Zn7   S    
C61   Cl19  S    
C181  O17   A    
C17   C121  A    
C143  C152  A    
C15   C128  A    
C43   C141  S    
C107  C121  A    
C151  Cl14  S    
O16   Zn10  S    
C12   H5    S    
C158  C166  A    
C100  Cl7   S    
C115  C124  A    
C78   C178  A    
C106  C185  A    
C5    H33   S    
C6    C131  A    
C123  O34   A    
C4    C129  A    
C9    H2    S    
C21   C30   A    
C13   C83   A    
C40   O39   A    
O4    Zn10  S    
C97   H12   S    
C156  O46   A    
C153  C162  A    
C23   C32   A    
C11   C137  A    
C136  C144  A    
C110  C122  A    
O31   Zn12  S    
C39   C146  S    
C99   H31   S    
C18   H10   S    
C42   O37   A    
C164  C182  A    
O21   Zn10  S    
C176  O13   A    
C8    H36   S    
O23   Zn6   S    
O18   Zn9   S    
C94   C176  S    
C68   C80   A    
O1    Zn1   S    
C74   C178  A    
C103  C182  A    
C108  C187  A    
C35   C81   A    
C95   C98   A    
C92   C98   A    
C83   C92   A    
C14   C125  A    
O41   Zn2   S    
C10   C136  A    
C66   C69   A    
C68   Cl4   S    
C34   C116  A    
C101  O12   A    
C159  C168  A    
C144  C153  A    
C1    C155  S    
C6    C15   A    
C22   C165  A    
C26   C34   A    
C98   H23   S    
C26   C169  A    
C146  C154  A    
C13   C86   A    
C42   C142  S    
C52   C68   A    
C153  Cl16  S    
C101  O19   A    
C156  C162  S    
O38   Zn4   S    
C46   Cl2   S    
C16   C127  A    
C58   Cl22  S    
C109  C188  A    
C167  O47   A    
C38   H30   S    
C19   C124  A    
C45   O33   A    
C22   C31   A    
C129  C138  A    
C35   C55   A    
C154  C163  A    
C2    C80   A    
C174  O2    A    
C22   H15   S    
C49   C58   A    
C89   C97   A    
C111  C120  A    
C163  C167  S    
C163  C172  A    
C23   C166  A    
O45   Zn9   S    
C53   C62   A    
C28   C171  A    
C13   C76   A    
C138  C147  A    
C87   C96   A    
C156  O25   A    
C133  C186  A    
C161  C170  A    
C27   H19   S    
C40   C144  S    
C18   C120  A    
O9    Zn1   S    
C48   C56   A    
C7    C16   A    
C168  C185  A    
C105  C128  A    
O10   Zn5   S    
C53   C73   A    
O25   Zn7   S    
C102  Cl8   S    
C109  C124  A    
C55   C64   A    
C155  C164  A    
C177  O5    A    
C31   H24   S    
C30   C111  A    
C151  C160  A    
C24   C84   A    
C145  O45   A    
C49   C100  A    
C71   C75   A    
C148  Cl10  S    
C94   C99   A    
C4    H32   S    
O44   Zn8   S    
C29   C172  A    
C147  Cl9   S    
C87   C179  S    
C114  C122  A    
C70   C72   A    
C32   C114  A    
O24   Zn1   S    
C175  O11   A    
