data_str_m4_o1_o24_f0_acs.sym.101
_audit_creation_date              2012-12-11T14:52:22-0500
_audit_creation_method            fapswitch 2.2
_symmetry_space_group_name_H-M    P1
_symmetry_Int_Tables_number       1
_space_group_crystal_system       triclinic
_cell_length_a                    18.857228
_cell_length_b                    11.002999
_cell_length_c                    18.735001
_cell_angle_alpha                 90.177099
_cell_angle_beta                  90.972803
_cell_angle_gamma                 89.668965
_cell_volume                      3886.60899149

loop_
_atom_site_label
_atom_site_type_symbol
_atom_type_description
_atom_site_fract_x
_atom_site_fract_y
_atom_site_fract_z
_atom_type_partial_charge
C1    C     C_R   0.270650 0.046686 0.851861 0.584454
C2    C     C_R   0.728406 0.043649 0.146838 0.573266
C3    C     C_R   0.770512 0.548231 0.851309 0.561954
C4    C     C_R   0.227352 0.541922 0.145903 0.584445
C5    C     C_3   0.496826 0.729296 0.975473 -0.137695
C6    C     C_3   0.448705 0.742875 0.041463 -0.165365
C7    C     C_3   0.040876 0.247795 0.956680 -0.150675
C8    C     C_3   0.000575 0.217572 0.025233 -0.115777
C9    C     C_R   0.316004 0.571257 0.968179 -0.109397
C10   C     C_R   0.680116 0.586448 0.027471 -0.094137
C11   C     C_R   0.807848 0.038295 0.964409 -0.049882
C12   C     C_R   0.176661 0.092221 0.026469 -0.134276
C13   C     C_R   0.304922 0.536969 0.038896 0.228977
C14   C     C_R   0.687215 0.563277 0.953651 0.201565
C15   C     C_R   0.806054 0.031715 0.039189 0.261915
C16   C     C_R   0.185607 0.059932 0.953719 0.226517
C17   C     C_R   0.247687 0.589127 0.076274 0.061846
C18   C     C_R   0.749033 0.602591 0.919610 0.027022
C19   C     C_R   0.746610 0.081709 0.074784 0.068654
C20   C     C_R   0.247595 0.100174 0.919664 0.071776
C21   C     C_R   0.202260 0.674562 0.041918 0.229939
C22   C     C_R   0.798134 0.678387 0.956304 0.199401
C23   C     C_R   0.693226 0.143874 0.035532 0.232014
C24   C     C_R   0.296418 0.175303 0.956089 0.243714
C25   C     C_R   0.214357 0.705908 0.971999 -0.085687
C26   C     C_R   0.789518 0.699672 0.028630 -0.146834
C27   C     C_R   0.694301 0.141593 0.961870 -0.155719
C28   C     C_R   0.292359 0.185273 0.029269 -0.071541
C29   C     C_R   0.268982 0.652631 0.934163 -0.036282
C30   C     C_R   0.732887 0.650494 0.065171 -0.028253
C31   C     C_R   0.752379 0.094995 0.925728 -0.066570
C32   C     C_R   0.232078 0.148800 0.064844 -0.041718
C33   C     C_R   0.517108 0.724908 0.541852 -0.123722
C34   C     C_R   0.522294 0.721937 0.469072 -0.136122
C35   C     C_R   0.017199 0.224945 0.541882 -0.123331
C36   C     C_R   0.022401 0.221967 0.469101 -0.136932
C37   C     C_R   0.512022 0.828067 0.428591 0.031105
C38   C     C_R   0.498180 0.832717 0.576015 0.031169
C39   C     C_R   0.012072 0.328070 0.428609 0.028992
C40   C     C_R   0.998211 0.332734 0.576031 0.031744
C41   C     C_R   0.496193 0.937969 0.462632 -0.151739
C42   C     C_R   0.489679 0.940491 0.536520 -0.138323
C43   C     C_R   0.996201 0.437962 0.462640 -0.151658
C44   C     C_R   0.989676 0.440492 0.536526 -0.137885
C45   C     C_R   0.435991 0.818171 0.861758 0.553641
C46   C     C_R   0.530040 0.822880 0.144256 0.560266
C47   C     C_R   0.946286 0.319024 0.862939 0.555804
C48   C     C_R   0.060645 0.317296 0.137411 0.561887
C49   C     C_R   0.173798 0.581825 0.549238 -0.152243
C50   C     C_R   0.815542 0.607896 0.459027 -0.126533
C51   C     C_R   0.673806 0.081788 0.549243 -0.152007
C52   C     C_R   0.315567 0.107801 0.459000 -0.127374
C53   C     C_R   0.163921 0.555787 0.477836 -0.186067
C54   C     C_R   0.817685 0.609081 0.531633 -0.165366
C55   C     C_R   0.663928 0.055761 0.477839 -0.185631
C56   C     C_R   0.317713 0.108976 0.531609 -0.164611
C57   C     C_R   0.219452 0.506712 0.438499 0.036213
C58   C     C_R   0.758976 0.570364 0.570559 0.052322
C59   C     C_R   0.719469 0.006747 0.438493 0.036696
C60   C     C_R   0.258998 0.070286 0.570536 0.052785
C61   C     C_R   0.283678 0.471399 0.473552 0.268344
C62   C     C_R   0.696591 0.530734 0.535575 0.264228
C63   C     C_R   0.783715 0.971502 0.473532 0.268201
C64   C     C_R   0.196615 0.030642 0.535550 0.264134
C65   C     C_R   0.293164 0.499677 0.545735 -0.116592
C66   C     C_R   0.693511 0.538523 0.461228 -0.129685
C67   C     C_R   0.793201 0.999762 0.545712 -0.116047
C68   C     C_R   0.193539 0.038424 0.461201 -0.129643
C69   C     C_R   0.240578 0.564069 0.581452 -0.014254
C70   C     C_R   0.752064 0.581379 0.423862 -0.009256
C71   C     C_R   0.740594 0.064080 0.581446 -0.013406
C72   C     C_R   0.252085 0.081306 0.423837 -0.010582
C73   C     C_R   0.274221 0.683948 0.859103 0.550325
C74   C     C_R   0.726447 0.681864 0.140682 0.597017
C75   C     C_R   0.760924 0.136170 0.852119 0.537413
C76   C     C_R   0.226524 0.181096 0.140527 0.566919
C77   C     C_R   0.272195 0.043458 0.644704 0.572246
C78   C     C_R   0.708885 0.995188 0.361491 0.578556
C79   C     C_R   0.772189 0.543479 0.644714 0.572903
C80   C     C_R   0.208880 0.495178 0.361490 0.578173
C81   C     C_R   0.470360 0.823673 0.647385 0.557180
C82   C     C_R   0.531802 0.823172 0.354130 0.536005
C83   C     C_R   0.970368 0.323676 0.647391 0.554393
C84   C     C_R   0.031817 0.323171 0.354137 0.547143
C85   C     C_R   0.258200 0.631674 0.645852 0.556555
C86   C     C_R   0.740946 0.633640 0.354690 0.561249
C87   C     C_R   0.758205 0.131685 0.645844 0.549534
C88   C     C_R   0.240953 0.133615 0.354677 0.559150
C89   C     C_3   0.458213 0.942182 0.036606 -0.167972
C90   C     C_3   0.503962 0.929689 0.969031 -0.147029
C91   C     C_3   0.974482 0.411759 0.039689 -0.150118
C92   C     C_3   0.014427 0.441697 0.969581 -0.170429
C93   C     C_3   0.407465 0.846741 0.004847 0.261793
C94   C     C_3   0.546356 0.827433 0.005485 0.285545
C95   C     C_3   0.940018 0.302400 0.001961 0.271245
C96   C     C_3   0.075362 0.356952 0.994250 0.244196
C97   C     C_3   0.453703 0.831369 0.938548 0.024295
C98   C     C_3   0.500296 0.837194 0.071900 0.021073
C99   C     C_3   0.979005 0.330348 0.933601 0.016810
C100  C     C_3   0.035871 0.326646 0.062756 0.029391
Cr1   Cr    Cr6+3 0.229630 0.835900 0.747350 1.066765
Cr2   Cr    Cr6+3 0.770370 0.835900 0.252650 1.039918
Cr3   Cr    Cr6+3 0.729630 0.335900 0.747350 1.059941
Cr4   Cr    Cr6+3 0.270370 0.335900 0.252650 1.036791
Cr5   Cr    Cr6+3 0.387410 0.989850 0.750850 1.013942
Cr6   Cr    Cr6+3 0.612590 0.989850 0.249150 1.012089
Cr7   Cr    Cr6+3 0.887410 0.489850 0.750850 1.022317
Cr8   Cr    Cr6+3 0.112590 0.489850 0.249150 1.016191
Cr9   Cr    Cr6+3 0.385800 0.677120 0.749340 1.028998
Cr10  Cr    Cr6+3 0.614200 0.677120 0.250660 1.007958
Cr11  Cr    Cr6+3 0.885800 0.177120 0.749340 1.033221
Cr12  Cr    Cr6+3 0.114200 0.177120 0.250660 0.994096
H1    H     H_    0.130943 0.625737 0.577395 0.133992
H2    H     H_    0.861642 0.639579 0.430869 0.160768
H3    H     H_    0.630943 0.125657 0.577410 0.133597
H4    H     H_    0.361665 0.139486 0.430841 0.159651
H5    H     H_    0.113989 0.580422 0.452436 0.134578
H6    H     H_    0.866883 0.637594 0.556941 0.142788
H7    H     H_    0.613987 0.080357 0.452446 0.134610
H8    H     H_    0.366910 0.137482 0.556919 0.142747
H9    H     H_    0.343035 0.478206 0.572423 0.130506
H10   H     H_    0.644221 0.519741 0.433132 0.123089
H11   H     H_    0.843095 0.978355 0.572377 0.130602
H12   H     H_    0.144252 0.019630 0.433101 0.123325
H13   H     H_    0.443477 0.029383 0.062491 0.080048
H14   H     H_    0.524639 0.007530 0.938465 0.093385
H15   H     H_    0.947607 0.478272 0.074954 0.117979
H16   H     H_    0.020639 0.530354 0.942753 0.101729
H17   H     H_    0.513050 0.643455 0.949726 0.161796
H18   H     H_    0.423045 0.677758 0.076203 0.102205
H19   H     H_    0.066993 0.187691 0.917939 0.177636
H20   H     H_    0.998109 0.123891 0.044891 0.111337
H21   H     H_    0.357615 0.526699 0.938534 0.164494
H22   H     H_    0.632620 0.559856 0.054837 0.152113
H23   H     H_    0.853960 0.003826 0.937058 0.171395
H24   H     H_    0.128285 0.072552 0.054071 0.126853
H25   H     H_    0.180642 0.772904 0.946832 0.175715
H26   H     H_    0.827166 0.756755 0.056345 0.200820
H27   H     H_    0.651516 0.185063 0.932636 0.132910
H28   H     H_    0.336361 0.223310 0.058421 0.183224
H29   H     H_    0.523651 0.640517 0.570852 0.175232
H30   H     H_    0.535820 0.635621 0.444927 0.126710
H31   H     H_    0.023774 0.140573 0.570894 0.175123
H32   H     H_    0.035972 0.135669 0.444962 0.126500
H33   H     H_    0.489485 0.021121 0.432416 0.109501
H34   H     H_    0.475233 0.025024 0.562224 0.118739
H35   H     H_    0.989457 0.521098 0.432416 0.110605
H36   H     H_    0.975186 0.525012 0.562219 0.118954
O1    O     O_R   0.214270 0.709000 0.827470 -0.523192
O2    O     O_R   0.785730 0.709000 0.172530 -0.521723
O3    O     O_R   0.714270 0.209000 0.827470 -0.526834
O4    O     O_R   0.285730 0.209000 0.172530 -0.523081
O5    O     O_R   0.445950 0.919440 0.676520 -0.507079
O6    O     O_R   0.554050 0.919440 0.323480 -0.524763
O7    O     O_R   0.945950 0.419440 0.676520 -0.507628
O8    O     O_R   0.054050 0.419440 0.323480 -0.516928
O9    O     O_R   0.456730 0.717630 0.669840 -0.513346
O10   O     O_R   0.543270 0.717630 0.330160 -0.535273
O11   O     O_R   0.956730 0.217630 0.669840 -0.515093
O12   O     O_R   0.043270 0.217630 0.330160 -0.530694
O13   O     O_R   0.320620 0.625640 0.672920 -0.503215
O14   O     O_R   0.679380 0.625640 0.327080 -0.513126
O15   O     O_R   0.820620 0.125640 0.672920 -0.506588
O16   O     O_R   0.179380 0.125640 0.327080 -0.511533
O17   O     O_3   0.334280 0.834290 0.749180 -0.302827
O18   O     O_3   0.665720 0.834290 0.250820 -0.295511
O19   O     O_3   0.834280 0.334290 0.749180 -0.283079
O20   O     O_3   0.165720 0.334290 0.250820 -0.311868
O21   O     O_R   0.236160 0.958490 0.823130 -0.467594
O22   O     O_R   0.763840 0.958490 0.176870 -0.507240
O23   O     O_R   0.736160 0.458490 0.823130 -0.470714
O24   O     O_R   0.263840 0.458490 0.176870 -0.482898
O25   O     O_R   0.332080 0.075470 0.831280 -0.492459
O26   O     O_R   0.667920 0.075470 0.168720 -0.468884
O27   O     O_R   0.832080 0.575470 0.831280 -0.475986
O28   O     O_R   0.167920 0.575470 0.168720 -0.482870
O29   O     O_R   0.446300 0.918110 0.826620 -0.510999
O30   O     O_R   0.553700 0.918110 0.173380 -0.513441
O31   O     O_R   0.946300 0.418110 0.826620 -0.511107
O32   O     O_R   0.053700 0.418110 0.173380 -0.509330
O33   O     O_R   0.457110 0.716200 0.831760 -0.515214
O34   O     O_R   0.542890 0.716200 0.168240 -0.527145
O35   O     O_R   0.957110 0.216200 0.831760 -0.509741
O36   O     O_R   0.042890 0.216200 0.168240 -0.542510
O37   O     O_R   0.320980 0.624310 0.823030 -0.517173
O38   O     O_R   0.679020 0.624310 0.176970 -0.495220
O39   O     O_R   0.820980 0.124310 0.823030 -0.503688
O40   O     O_R   0.179020 0.124310 0.176970 -0.514665
O41   O     O_R   0.213890 0.710430 0.665540 -0.513835
O42   O     O_R   0.786110 0.710430 0.334460 -0.491646
O43   O     O_R   0.713890 0.210430 0.665540 -0.516493
O44   O     O_R   0.286110 0.210430 0.334460 -0.492532
O45   O     O_R   0.235810 0.959820 0.673020 -0.447250
O46   O     O_R   0.764190 0.959820 0.326980 -0.462673
O47   O     O_R   0.735810 0.459820 0.673020 -0.445365
O48   O     O_R   0.264190 0.459820 0.326980 -0.459353
O49   O     O_R   0.331700 0.076900 0.669350 -0.545343
O50   O     O_R   0.668300 0.076900 0.330650 -0.531925
O51   O     O_R   0.831700 0.576900 0.669350 -0.545101
O52   O     O_R   0.168300 0.576900 0.330650 -0.532162
O53   O     O_3   0.333463 0.863492 0.004853 -0.598860
C101  C     C_3   0.311590 0.881945 0.075943 -0.112161
H37   H     H_    0.334865 0.965134 0.100040 0.119925
H38   H     H_    0.324280 0.802254 0.110199 0.109112
H39   H     H_    0.253484 0.895126 0.076090 0.184515
O54   O     O_3   0.621027 0.825652 0.006843 -0.582143
C102  C     C_3   0.645572 0.845163 0.936932 -0.110039
H40   H     H_    0.630108 0.935294 0.915711 0.106958
H41   H     H_    0.627005 0.773108 0.899464 0.166993
H42   H     H_    0.703941 0.846000 0.938198 0.156752
O55   O     O_3   0.868780 0.268744 0.009486 -0.596129
C103  C     C_3   0.823973 0.363145 0.985951 -0.109191
H43   H     H_    0.819231 0.360272 0.927071 0.132153
H44   H     H_    0.841455 0.453881 0.004911 0.103447
H45   H     H_    0.770598 0.349124 0.007915 0.157707
O56   O     O_3   0.148320 0.383313 0.992498 -0.583926
C104  C     C_3   0.167631 0.402833 0.921037 -0.095889
H46   H     H_    0.145426 0.490278 0.900969 0.129911
H47   H     H_    0.151683 0.327060 0.885000 0.119270
H48   H     H_    0.226006 0.406852 0.918500 0.189239
O57   O     O_3   0.335842 0.407396 0.437890 -0.544427
C105  C     C_3   0.396896 0.480126 0.431888 -0.109218
H49   H     H_    0.426396 0.485854 0.483591 0.092236
H50   H     H_    0.383874 0.572872 0.411605 0.130324
H51   H     H_    0.432782 0.436730 0.392898 0.131982
O58   O     O_3   0.638510 0.496698 0.575774 -0.558247
C106  C     C_3   0.601953 0.397248 0.545037 -0.118895
H52   H     H_    0.638375 0.329574 0.520554 0.125043
H53   H     H_    0.562013 0.429531 0.505122 0.082691
H54   H     H_    0.572869 0.350098 0.587725 0.142456
O59   O     O_3   0.835914 0.907605 0.437863 -0.544848
C107  C     C_3   0.896834 0.980612 0.431674 -0.109670
H55   H     H_    0.926348 0.986804 0.483352 0.092768
H56   H     H_    0.883632 0.073169 0.411207 0.130801
H57   H     H_    0.932774 0.937176 0.392749 0.131865
O60   O     O_3   0.138535 0.996607 0.575752 -0.558803
C108  C     C_3   0.101927 0.897235 0.544986 -0.119106
H58   H     H_    0.138312 0.829559 0.520451 0.124698
H59   H     H_    0.061977 0.929612 0.505108 0.083096
H60   H     H_    0.072849 0.850057 0.587668 0.142959
O61   O     O_3   0.335948 0.430888 0.063321 -0.558553
C109  C     C_3   0.404113 0.451834 0.091930 -0.122859
H61   H     H_    0.425571 0.364495 0.112593 0.116230
H62   H     H_    0.402133 0.514575 0.138496 0.127766
H63   H     H_    0.440847 0.482360 0.049953 0.096089
O62   O     O_3   0.632333 0.516831 0.911215 -0.554054
C110  C     C_3   0.595826 0.423187 0.945558 -0.119104
H64   H     H_    0.571216 0.363559 0.904376 0.130304
H65   H     H_    0.553004 0.459803 0.979290 0.091500
H66   H     H_    0.632265 0.367733 0.978609 0.164374
O63   O     O_3   0.859747 0.967045 0.074300 -0.605064
C111  C     C_3   0.896544 0.038802 0.125647 -0.089314
H67   H     H_    0.879994 0.018534 0.180574 0.148284
H68   H     H_    0.892131 0.138315 0.116724 0.169394
H69   H     H_    0.953062 0.011064 0.125721 0.122021
O64   O     O_3   0.135540 0.998000 0.911474 -0.563716
C112  C     C_3   0.080810 0.940378 0.948712 -0.149630
H70   H     H_    0.062597 0.862018 0.916128 0.129514
H71   H     H_    0.034344 0.000746 0.954141 0.121425
H72   H     H_    0.098033 0.904710 0.001167 0.145547
O65   O     O_3   0.148990 0.735007 0.078019 -0.573552
C113  C     C_3   0.082628 0.686749 0.056834 -0.105936
H73   H     H_    0.078225 0.590169 0.072400 0.183868
H74   H     H_    0.072878 0.695349 0.998543 0.059581
H75   H     H_    0.040188 0.738008 0.084305 0.124075
O66   O     O_3   0.849279 0.741169 0.918608 -0.541318
C114  C     C_3   0.916848 0.733328 0.952071 -0.119268
H76   H     H_    0.924512 0.649341 0.984231 0.089664
H77   H     H_    0.926235 0.814467 0.986136 0.142066
H78   H     H_    0.957501 0.732527 0.910033 0.131686
O67   O     O_3   0.644723 0.218180 0.070061 -0.568166
C115  C     C_3   0.575218 0.174924 0.058579 -0.108482
H79   H     H_    0.572070 0.076491 0.070088 0.181176
H80   H     H_    0.555742 0.193860 0.003604 0.048663
H81   H     H_    0.539340 0.222751 0.095763 0.123528
O68   O     O_3   0.341942 0.249364 0.918246 -0.545795
C116  C     C_3   0.413248 0.225482 0.937218 -0.102558
H82   H     H_    0.424148 0.126690 0.939355 0.134192
H83   H     H_    0.428101 0.269915 0.988362 0.099630
H84   H     H_    0.447475 0.264070 0.895528 0.130168

loop_
_geom_bond_atom_site_label_1
_geom_bond_atom_site_label_2
_ccdc_geom_bond_type
Cr2   O22   S    
C63   O59   S    
C49   H1    S    
C49   C53   A    
C58   C62   A    
C46   O34   A    
Cr10  O18   S    
C55   C59   A    
Cr9   O33   S    
Cr6   O26   S    
C34   C37   A    
C85   O13   A    
C41   C42   A    
C46   O30   A    
C87   O15   A    
C35   C36   A    
C28   H28   S    
C48   O32   A    
C33   H29   S    
C6    H18   S    
C102  H41   S    
Cr9   O9    S    
C68   H12   S    
C113  H75   S    
C5    C94   S    
C84   O12   A    
Cr3   O43   S    
C81   O5    A    
C7    C8    S    
Cr12  O36   S    
C55   H7    S    
C35   H31   S    
C104  H48   S    
Cr3   O19   S    
C7    C96   S    
Cr7   O51   S    
C23   O67   S    
C15   O63   S    
C50   C54   A    
C91   H15   S    
C96   C100  S    
C37   C41   A    
Cr8   O20   S    
C64   C68   A    
C87   O43   A    
C39   C84   S    
C64   O60   S    
C52   H4    S    
Cr1   O41   S    
C78   O46   A    
O65   C113  S    
C82   O10   A    
C114  H78   S    
C53   H5    S    
C83   O7    A    
C94   C98   S    
C95   C99   S    
C85   O41   A    
O67   C115  S    
Cr12  O20   S    
C108  H59   S    
C92   H16   S    
C92   C96   S    
C79   O47   A    
O60   C108  S    
Cr8   O32   S    
C3    C18   S    
C51   H3    S    
O61   C109  S    
O53   C101  S    
Cr1   O1    S    
C30   C74   S    
C9    C13   A    
C77   O45   A    
Cr5   O25   S    
C83   O11   A    
C3    O23   A    
C52   C56   A    
C11   C15   A    
C34   H30   S    
C12   C16   A    
C75   O3    A    
C115  H79   S    
Cr6   O6    S    
C101  H39   S    
C94   O54   S    
C8    H20   S    
C47   C99   S    
C109  H62   S    
C66   H10   S    
Cr1   O21   S    
C86   O14   A    
C23   C27   A    
C91   C100  S    
C93   O53   S    
C90   C97   S    
C7    H19   S    
C76   O40   A    
C9    C29   A    
Cr6   O30   S    
Cr6   O50   S    
Cr7   O31   S    
C5    H17   S    
C46   C98   S    
C11   C31   A    
Cr2   O18   S    
C49   C69   A    
C108  H58   S    
C12   C32   A    
Cr3   O23   S    
C56   H8    S    
C57   C80   S    
C40   C83   S    
C8    C95   S    
Cr3   O47   S    
C80   O48   A    
Cr2   O46   S    
C59   C78   S    
C107  H56   S    
C73   O37   A    
C72   C88   S    
Cr1   O45   S    
C90   C94   S    
C63   C67   A    
C110  H65   S    
Cr10  O14   S    
Cr12  O16   S    
Cr7   O19   S    
C60   C77   S    
C86   O42   A    
C109  H63   S    
C79   O51   A    
C101  H37   S    
C47   O31   A    
C45   O33   A    
C102  H40   S    
C24   C28   A    
C28   C32   A    
C48   C100  S    
C81   O9    A    
O56   C104  S    
O63   C111  S    
C10   C14   A    
C89   C90   S    
C91   C92   S    
C48   O36   A    
C42   H34   S    
C62   C66   A    
O54   C102  S    
C89   H13   S    
C105  H51   S    
Cr9   O37   S    
Cr5   O5    S    
C88   O16   A    
C27   C31   A    
C107  H57   S    
C17   C21   A    
C25   H25   S    
C56   C60   A    
C68   C72   A    
Cr5   O49   S    
C7    C99   S    
C15   C19   A    
C43   C44   A    
O55   C103  S    
C101  H38   S    
O57   C105  S    
C52   C72   A    
C11   H23   S    
C102  H42   S    
C22   O66   S    
C93   C97   S    
C31   C75   S    
C106  H52   S    
Cr8   O8    S    
C103  H45   S    
C13   O61   S    
C16   C20   A    
C6    C93   S    
C1    O25   A    
O64   C112  S    
C106  H54   S    
Cr11  O35   S    
C33   C34   A    
C90   H14   S    
C41   H33   S    
C9    H21   S    
O68   C116  S    
Cr1   O17   S    
C74   O38   A    
C47   O35   A    
Cr9   O17   S    
C58   C79   S    
Cr2   O2    S    
C111  H69   S    
C71   C87   S    
C4    C17   S    
C16   O64   S    
C21   O65   S    
C104  H46   S    
C103  H44   S    
C26   C30   A    
Cr8   O52   S    
C65   H9    S    
C116  H83   S    
C38   C81   S    
C22   C26   A    
C54   C58   A    
C10   C30   A    
C105  H50   S    
C36   H32   S    
C27   H27   S    
C12   H24   S    
C70   C86   S    
C6    C98   S    
C112  H70   S    
C69   C85   S    
C19   C23   A    
Cr11  O15   S    
C111  H68   S    
Cr12  O40   S    
C24   O68   S    
C110  H66   S    
C3    O27   A    
C88   O44   A    
C21   C25   A    
O62   C110  S    
Cr10  O38   S    
C1    C20   S    
C53   C57   A    
C4    O24   A    
C80   O52   A    
C73   O1    A    
C2    C19   S    
C18   C22   A    
C59   C63   A    
C14   C18   A    
C36   C39   A    
C75   O39   A    
C10   H22   S    
Cr5   O29   S    
C26   H26   S    
C67   H11   S    
C32   C76   S    
C39   C43   A    
C110  H64   S    
C51   C71   A    
C57   C61   A    
C113  H73   S    
Cr3   O3    S    
C104  H47   S    
C66   C70   A    
Cr11  O39   S    
C33   C38   A    
C96   O56   S    
Cr4   O24   S    
C89   C98   S    
C60   C64   A    
C112  H72   S    
C95   O55   S    
Cr4   O4    S    
C54   H6    S    
C35   C40   A    
C8    C100  S    
C109  H61   S    
Cr4   O20   S    
C2    O22   A    
C106  H53   S    
C45   C97   S    
C2    O26   A    
C62   O58   S    
C45   O29   A    
C84   O8    A    
C25   C29   A    
C5    C6    S    
Cr7   O27   S    
Cr6   O18   S    
C115  H81   S    
C65   C69   A    
C108  H60   S    
Cr8   O28   S    
C1    O21   A    
C107  H55   S    
Cr2   O42   S    
Cr5   O17   S    
Cr10  O10   S    
C5    C97   S    
C67   C71   A    
C61   C65   A    
C89   C93   S    
C105  H49   S    
C37   C82   S    
C61   O57   S    
C50   C70   A    
C43   H35   S    
O66   C114  S    
Cr11  O19   S    
C91   C95   S    
C13   C17   A    
C82   O6    A    
C38   C42   A    
Cr12  O12   S    
C40   C44   A    
C113  H74   S    
C29   C73   S    
C103  H43   S    
Cr10  O34   S    
C115  H80   S    
O58   C106  S    
C4    O28   A    
C116  H84   S    
C114  H76   S    
O59   C107  S    
C51   C55   A    
C76   O4    A    
C74   O2    A    
C50   H2    S    
Cr9   O13   S    
C78   O50   A    
C112  H71   S    
C44   H36   S    
C116  H82   S    
C77   O49   A    
C20   C24   A    
Cr7   O7    S    
C114  H77   S    
C92   C99   S    
Cr4   O48   S    
C111  H67   S    
C14   O62   S    
Cr11  O11   S    
Cr4   O44   S    
