data_str_m2_o40_o40_f0_fof.sym.20
_audit_creation_date              2012-10-26T17:12:25-0400
_audit_creation_method            fapswitch 2.2
_symmetry_space_group_name_H-M    P1
_symmetry_Int_Tables_number       1
_space_group_crystal_system       triclinic
_cell_length_a                    16.729234
_cell_length_b                    16.978247
_cell_length_c                    16.694519
_cell_angle_alpha                 67.953319
_cell_angle_beta                  68.443375
_cell_angle_gamma                 68.033508
_cell_volume                      3931.28915862

loop_
_atom_site_label
_atom_site_type_symbol
_atom_type_description
_atom_site_fract_x
_atom_site_fract_y
_atom_site_fract_z
_atom_type_partial_charge
C1    C     C_R   0.015890 0.831294 0.569479 0.585459
C2    C     C_R   0.028846 0.564564 0.828647 0.549299
C3    C     C_R   0.169810 0.982295 0.431344 0.558714
C4    C     C_R   0.828556 0.025784 0.565044 0.573752
C5    C     C_R   0.450090 0.078396 0.702294 -0.122160
C6    C     C_R   0.541072 0.953089 0.294944 -0.104511
C7    C     C_R   0.945733 0.737687 0.501502 -0.117343
C8    C     C_R   0.027536 0.272069 0.514293 -0.123587
C9    C     C_R   0.693350 0.463568 0.083893 -0.109641
C10   C     C_R   0.310340 0.532843 0.912255 -0.112371
C11   C     C_R   0.256542 0.076673 0.480126 -0.115763
C12   C     C_R   0.982084 0.169758 0.431408 0.549083
C13   C     C_R   0.704680 0.082079 0.448386 -0.120670
C14   C     C_R   0.516098 0.266369 0.035813 -0.046132
C15   C     C_R   0.500807 0.734792 0.948120 -0.121632
C16   C     C_R   0.910042 0.540796 0.306717 -0.110713
C17   C     C_R   0.081757 0.464752 0.692226 -0.105639
C18   C     C_R   0.532814 0.062461 0.528624 -0.073915
C19   C     C_R   0.442668 0.033353 0.433617 -0.072939
C20   C     C_R   0.998058 0.553346 0.551520 -0.073523
C21   C     C_R   0.982279 0.456143 0.454689 -0.071584
C22   C     C_R   0.553386 0.550223 0.999423 -0.058139
C23   C     C_R   0.828699 0.564499 0.029006 0.546483
C24   C     C_R   0.457873 0.451012 0.985103 -0.061504
C25   C     C_R   0.576721 0.052310 0.441522 0.078320
C26   C     C_R   0.393119 0.068156 0.507970 0.074789
C27   C     C_R   0.030391 0.460051 0.575388 0.070001
C28   C     C_R   0.950076 0.549820 0.429547 0.067547
C29   C     C_R   0.478388 0.595083 0.962427 0.068817
C30   C     C_R   0.535980 0.407277 0.016252 0.015006
C31   C     C_R   0.535941 0.022535 0.401430 0.075629
C32   C     C_R   0.440071 0.070023 0.563417 0.072975
C33   C     C_R   0.432759 0.544421 0.951201 0.073291
C34   C     C_R   0.170849 0.433268 0.977048 0.554913
C35   C     C_R   0.578325 0.456751 0.031786 0.034814
C36   C     C_R   0.014552 0.411667 0.532151 0.072995
C37   C     C_R   0.961713 0.599266 0.476066 0.065185
C38   C     C_R   0.399530 0.075130 0.652978 0.286818
C39   C     C_R   0.585929 0.975398 0.336325 0.294343
C40   C     C_R   0.944326 0.692742 0.446944 0.295115
C41   C     C_R   0.024875 0.320033 0.567300 0.283108
C42   C     C_R   0.639042 0.416503 0.086432 0.242004
C43   C     C_R   0.367885 0.581489 0.901080 0.297372
C44   C     C_R   0.299559 0.101772 0.521234 0.292534
C45   C     C_R   0.565398 0.025243 0.828343 0.557117
C46   C     C_R   0.657923 0.075407 0.397537 0.298727
C47   C     C_R   0.570029 0.314614 0.029080 0.295799
C48   C     C_R   0.448267 0.688614 0.944920 0.289633
C49   C     C_R   0.900510 0.588642 0.364121 0.298492
C50   C     C_R   0.084677 0.418871 0.636518 0.299343
C51   C     C_R   0.543976 0.060791 0.672143 -0.044775
C52   C     C_R   0.447219 0.975533 0.317235 -0.045510
C53   C     C_R   0.986181 0.693671 0.572673 -0.056304
C54   C     C_R   0.997081 0.312915 0.436322 -0.041304
C55   C     C_R   0.677558 0.554102 0.041875 -0.035016
C56   C     C_R   0.435977 0.970928 0.171998 0.573419
C57   C     C_R   0.326170 0.442771 0.958249 -0.043969
C58   C     C_R   0.305261 0.023113 0.421408 -0.044519
C59   C     C_R   0.674192 0.061045 0.542718 -0.049672
C60   C     C_R   0.437327 0.307243 0.007242 -0.067350
C61   C     C_R   0.572185 0.691804 0.988238 -0.055760
C62   C     C_R   0.951121 0.449817 0.324828 -0.042633
C63   C     C_R   0.040143 0.555232 0.677133 -0.039567
C64   C     C_R   0.600288 0.037916 0.729552 -0.004675
C65   C     C_R   0.400675 0.961175 0.270024 0.010959
C66   C     C_R   0.013227 0.738274 0.612074 0.003521
C67   C     C_R   0.429667 0.166743 0.990320 0.575227
C68   C     C_R   0.979436 0.265210 0.392168 -0.010712
C69   C     C_R   0.730749 0.602200 0.041222 -0.022694
C70   C     C_R   0.267149 0.392226 0.974807 -0.006388
C71   C     C_R   0.264216 0.984804 0.389403 -0.015035
C72   C     C_R   0.730244 0.038819 0.599399 0.006719
C73   C     C_R   0.389022 0.258595 0.998649 -0.000356
C74   C     C_R   0.611474 0.737364 0.014565 -0.000796
C75   C     C_R   0.956779 0.399969 0.270389 0.000067
C76   C     C_R   0.040418 0.602617 0.730654 -0.022207
C77   C     C_R   0.693933 0.016833 0.692673 0.102424
C78   C     C_R   0.569240 0.830988 0.016402 0.571883
C79   C     C_R   0.314087 0.951104 0.314229 0.095695
C80   C     C_R   0.041775 0.691309 0.691537 0.101373
C81   C     C_R   0.956628 0.311253 0.309829 0.090332
C82   C     C_R   0.691271 0.690900 0.042517 0.102478
C83   C     C_R   0.299714 0.299005 0.997726 0.102233
C84   C     C_R   0.583568 0.061397 0.581423 -0.002805
C85   C     C_R   0.398494 0.010105 0.391078 -0.004661
C86   C     C_R   0.007821 0.600900 0.600401 -0.001830
C87   C     C_R   0.976699 0.406165 0.405413 -0.001857
C88   C     C_R   0.600931 0.598908 0.009585 0.003240
C89   C     C_R   0.970732 0.435927 0.171542 0.556256
C90   C     C_R   0.407030 0.400321 0.983759 -0.003369
C91   C     C_3   0.754725 0.868118 0.778978 -0.279846
C92   C     C_3   0.233158 0.925145 0.231967 -0.219044
C93   C     C_3   0.038112 0.781853 0.781681 -0.212953
C94   C     C_3   0.834391 0.273954 0.299339 -0.272375
C95   C     C_3   0.781270 0.781711 0.038399 -0.221030
C96   C     C_3   0.197628 0.220714 0.122754 -0.269051
Cu1   Cu    Cu3+1 0.995180 0.995180 0.424630 0.877317
Cu2   Cu    Cu3+1 0.004820 0.004820 0.575370 0.916191
Cu3   Cu    Cu3+1 0.995180 0.424630 0.995180 0.932449
Cu4   Cu    Cu3+1 0.004820 0.575370 0.004820 0.890151
Cu5   Cu    Cu3+1 0.424630 0.995180 0.995180 0.889602
Cu6   Cu    Cu3+1 0.575370 0.004820 0.004820 0.923174
H1    H     H_    0.413239 0.093685 0.764953 0.141323
H2    H     H_    0.482515 0.805327 0.919960 0.140555
H3    H     H_    0.875438 0.572778 0.254412 0.108310
H4    H     H_    0.120500 0.431529 0.741083 0.114684
H5    H     H_    0.296889 0.068169 0.758490 0.315118
H6    H     H_    0.702318 0.911929 0.273922 0.322921
H7    H     H_    0.929690 0.802641 0.350014 0.324976
H8    H     H_    0.025132 0.216331 0.672075 0.317926
H9    H     H_    0.683542 0.317205 0.181328 0.320277
H10   H     H_    0.321477 0.674572 0.803763 0.318127
H11   H     H_    0.188517 0.180470 0.571674 0.336643
H12   H     H_    0.580613 0.912892 0.249201 0.129467
H13   H     H_    0.743876 0.113128 0.285031 0.315804
H14   H     H_    0.695328 0.310414 0.987463 0.331814
H15   H     H_    0.350954 0.797581 0.928377 0.318777
H16   H     H_    0.804662 0.683629 0.317138 0.313721
H17   H     H_    0.180755 0.320036 0.679084 0.329578
H18   H     H_    0.761552 0.985679 0.790331 0.279137
H19   H     H_    0.691398 0.858492 0.829587 0.145739
H20   H     H_    0.810992 0.828638 0.809795 0.121959
H21   H     H_    0.764776 0.843632 0.721929 0.153172
H22   H     H_    0.267422 0.841478 0.350475 0.258173
H23   H     H_    0.916740 0.808150 0.484505 0.146204
H24   H     H_    0.169662 0.905778 0.264059 0.143391
H25   H     H_    0.269540 0.895701 0.174926 0.165174
H26   H     H_    0.216952 0.998257 0.206648 0.151183
H27   H     H_    0.146836 0.682017 0.737045 0.241224
H28   H     H_    0.054496 0.750086 0.847298 0.137413
H29   H     H_    0.965053 0.796856 0.792343 0.147812
H30   H     H_    0.057676 0.844457 0.753822 0.160217
H31   H     H_    0.972714 0.218475 0.244802 0.270299
H32   H     H_    0.818964 0.244786 0.259210 0.123219
H33   H     H_    0.792263 0.343380 0.291905 0.142122
H34   H     H_    0.054446 0.202486 0.537822 0.120274
H35   H     H_    0.818055 0.235834 0.370881 0.152181
H36   H     H_    0.736555 0.682008 0.147676 0.238203
H37   H     H_    0.792062 0.796488 0.965180 0.146198
H38   H     H_    0.753525 0.844422 0.057689 0.153454
H39   H     H_    0.846628 0.750039 0.055009 0.137939
H40   H     H_    0.217153 0.237851 0.983110 0.273668
H41   H     H_    0.124192 0.244732 0.132784 0.165011
H42   H     H_    0.216488 0.249889 0.160440 0.143828
H43   H     H_    0.216670 0.147930 0.150197 0.139033
H44   H     H_    0.742222 0.430971 0.122603 0.116531
H45   H     H_    0.258423 0.563811 0.877344 0.111985
H46   H     H_    0.185325 0.103512 0.490680 0.114469
H47   H     H_    0.764004 0.104283 0.412728 0.122638
H48   H     H_    0.539154 0.196164 0.063658 0.185940
N1    N     N_2   0.753109 0.960428 0.747657 -0.493138
N2    N     N_2   0.287063 0.890778 0.295119 -0.496472
N3    N     N_2   0.088827 0.725960 0.721382 -0.483121
N4    N     N_2   0.927917 0.271677 0.267373 -0.484929
N5    N     N_2   0.720995 0.725838 0.089423 -0.486397
N6    N     N_2   0.242084 0.243705 0.028034 -0.485062
O1    O     O_R   0.124540 0.978640 0.385460 -0.509759
O2    O     O_R   0.124540 0.385460 0.978640 -0.507288
O3    O     O_R   0.021360 0.875460 0.614540 -0.481077
O4    O     O_R   0.978640 0.124540 0.385460 -0.517262
O5    O     O_R   0.013780 0.867370 0.487190 -0.527892
O6    O     O_R   0.986220 0.132630 0.512810 -0.531930
O7    O     O_R   0.867370 0.487190 0.013780 -0.502834
O8    O     O_R   0.132630 0.512810 0.986220 -0.508845
O9    O     O_R   0.487190 0.013780 0.867370 -0.534411
O10   O     O_R   0.512810 0.986220 0.132630 -0.525357
O11   O     O_R   0.512810 0.132630 0.986220 -0.524360
O12   O     O_R   0.875460 0.021360 0.614540 -0.478394
O13   O     O_R   0.487190 0.867370 0.013780 -0.527054
O14   O     O_R   0.986220 0.512810 0.132630 -0.512659
O15   O     O_R   0.013780 0.487190 0.867370 -0.501894
O16   O     O_R   0.132630 0.986220 0.512810 -0.511054
O17   O     O_R   0.867370 0.013780 0.487190 -0.531592
O18   O     O_3   0.313760 0.066689 0.695473 -0.644499
O19   O     O_3   0.677852 0.943830 0.320552 -0.642464
O20   O     O_3   0.937802 0.738944 0.360498 -0.639946
O21   O     O_3   0.023216 0.279282 0.656773 -0.650475
O22   O     O_3   0.638669 0.334604 0.147766 -0.637006
O23   O     O_R   0.978640 0.385460 0.124540 -0.487732
O24   O     O_3   0.369249 0.659291 0.833137 -0.636781
O25   O     O_3   0.253019 0.166372 0.565640 -0.608540
O26   O     O_3   0.686564 0.097894 0.304994 -0.626911
O27   O     O_3   0.658339 0.269162 0.026422 -0.641888
O28   O     O_3   0.362598 0.733762 0.936140 -0.641893
O29   O     O_3   0.833842 0.667115 0.365429 -0.634336
O30   O     O_3   0.147565 0.338320 0.633650 -0.621389
O31   O     O_R   0.021360 0.614540 0.875460 -0.512246
O32   O     O_R   0.385460 0.124540 0.978640 -0.487798
O33   O     O_R   0.614540 0.875460 0.021360 -0.493105
O34   O     O_R   0.614540 0.021360 0.875460 -0.506159
O35   O     O_R   0.385460 0.978640 0.124540 -0.500853
O36   O     O_R   0.875460 0.614540 0.021360 -0.513371

loop_
_geom_bond_atom_site_label_1
_geom_bond_atom_site_label_2
_ccdc_geom_bond_type
H36   N5    S    
C25   C31   A    
H27   N3    S    
C21   C87   A    
C26   C32   A    
Cu5   Cu6   S    
C65   C79   A    
C22   C29   A    
C8    H34   S    
C64   C77   A    
C9    H44   S    
C19   C31   A    
C77   N1    S    
C71   C79   A    
Cu1   Cu2   S    
H7    O20   S    
C26   C44   A    
C80   N3    S    
C21   C36   A    
C96   H43   S    
C12   C68   S    
C9    C42   A    
Cu6   O11   S    
C30   C35   A    
C68   C81   A    
C41   O21   S    
C52   C85   A    
C89   O14   A    
C37   C40   A    
C34   O8    A    
C54   C87   A    
C58   C71   A    
C38   O18   S    
Cu3   O15   S    
C63   C76   A    
C56   C65   S    
H14   O27   S    
C29   C33   A    
C60   C73   A    
Cu6   O33   S    
C55   C88   A    
C35   C42   A    
C19   C26   A    
C23   C69   S    
C2    O31   A    
C6    H12   S    
H6    O19   S    
C94   H32   S    
H11   O25   S    
C91   H20   S    
C20   C86   A    
C92   N2    S    
H9    O22   S    
C18   C84   A    
C7    C40   A    
Cu5   O13   S    
C53   C86   A    
C9    C55   A    
C22   C88   A    
C57   C70   A    
C93   H30   S    
C34   C70   S    
C27   C50   A    
C2    O15   A    
H10   O24   S    
Cu2   O16   S    
H22   N2    S    
C56   O35   A    
C1    O5    A    
Cu6   O10   S    
C91   H21   S    
C5    C38   A    
C5    H1    S    
C36   C41   A    
Cu4   O36   S    
C18   C25   A    
C16   C62   A    
C15   C48   A    
C74   C82   A    
C78   O33   A    
C92   H26   S    
C59   C72   A    
C23   O36   A    
Cu2   O6    S    
H16   O29   S    
C24   C33   A    
C94   H33   S    
C23   O7    A    
C43   O24   S    
H15   O28   S    
Cu1   O17   S    
C57   C90   A    
C29   C48   A    
Cu4   O14   S    
H31   N4    S    
C33   C43   A    
Cu1   O4    S    
C30   C47   A    
C1    O3    A    
C10   C57   A    
C16   C49   A    
C47   O27   S    
C8    C54   A    
C40   O20   S    
C75   C81   A    
C83   N6    S    
H8    O21   S    
Cu5   O35   S    
C12   O6    A    
C78   O13   A    
C7    H23   S    
C81   N4    S    
C4    O12   A    
C24   C90   A    
Cu1   O1    S    
C3    C71   S    
Cu3   O23   S    
C72   C77   A    
C70   C83   A    
C61   C88   A    
C96   H42   S    
C28   C49   A    
Cu3   Cu4   S    
C94   N4    S    
C54   C68   A    
C14   H48   S    
C1    C66   S    
C15   C61   A    
C11   C44   A    
Cu4   O8    S    
C12   O4    A    
C8    C41   A    
Cu5   O9    S    
C53   C66   A    
C55   C69   A    
C16   H3    S    
C67   C73   S    
C82   N5    S    
C34   O2    A    
C39   O19   S    
C20   C27   A    
C21   C28   A    
C95   H39   S    
C32   C38   A    
C4    O17   A    
C63   C86   A    
C91   H19   S    
C15   H2    S    
Cu3   O7    S    
C62   C75   A    
C18   C32   A    
C7    C53   A    
C93   H28   S    
Cu5   O32   S    
C58   C85   A    
C4    C72   S    
H13   O26   S    
C2    C76   S    
C67   O32   A    
C48   O28   S    
C67   O11   A    
C13   C46   A    
H18   N1    S    
C66   C80   A    
C10   C43   A    
C51   C64   A    
C76   C80   A    
C19   C85   A    
C92   H24   S    
C17   C50   A    
C14   C47   A    
C13   C59   A    
H5    O18   S    
C60   C90   A    
C61   C74   A    
C51   C84   A    
C14   C60   A    
C62   C87   A    
C10   H45   S    
C45   C64   S    
C95   H37   S    
C59   C84   A    
Cu4   O31   S    
C27   C36   A    
H40   N6    S    
C46   O26   S    
C22   C35   A    
H17   O30   S    
C92   H25   S    
C17   H4    S    
C17   C63   A    
C96   H41   S    
C91   N1    S    
C20   C37   A    
C96   N6    S    
C28   C37   A    
C42   O22   S    
C44   O25   S    
C93   N3    S    
Cu6   O34   S    
C11   C58   A    
C31   C39   A    
C69   C82   A    
C95   N5    S    
C89   O23   A    
C11   H46   S    
C24   C30   A    
C3    O16   A    
C75   C89   S    
C13   H47   S    
C95   H38   S    
C45   O34   A    
C49   O29   S    
Cu2   O3    S    
C74   C78   S    
Cu3   O2    S    
C56   O10   A    
C3    O1    A    
C94   H35   S    
C6    C39   A    
C5    C51   A    
C6    C52   A    
C93   H29   S    
C45   O9    A    
C25   C46   A    
C73   C83   A    
Cu2   O12   S    
C52   C65   A    
Cu1   O5    S    
C79   N2    S    
C50   O30   S    
