data_str_m4_o1_o4_f0_acs.sym.83
_audit_creation_date              2012-12-11T14:54:42-0500
_audit_creation_method            fapswitch 2.2
_symmetry_space_group_name_H-M    P1
_symmetry_Int_Tables_number       1
_space_group_crystal_system       triclinic
_cell_length_a                    18.841758
_cell_length_b                    10.940405
_cell_length_c                    18.803145
_cell_angle_alpha                 89.929498
_cell_angle_beta                  89.647832
_cell_angle_gamma                 89.933814
_cell_volume                      3875.9351086

loop_
_atom_site_label
_atom_site_type_symbol
_atom_type_description
_atom_site_fract_x
_atom_site_fract_y
_atom_site_fract_z
_atom_type_partial_charge
C1    C     C_R   0.731612 0.381071 0.647423 0.543845
C2    C     C_R   0.318122 0.920731 0.469817 -0.166194
C3    C     C_R   0.979189 0.550245 0.469674 -0.160874
C4    C     C_3   0.592556 0.757430 0.956975 -0.095865
C5    C     C_3   0.407338 0.755947 0.043300 -0.095740
C6    C     C_3   0.092557 0.257446 0.956968 -0.095865
C7    C     C_3   0.907337 0.255935 0.043299 -0.095738
C8    C     C_R   0.175662 0.450648 0.525733 -0.159383
C9    C     C_R   0.818121 0.420730 0.469817 -0.166194
C10   C     C_R   0.682832 0.921093 0.453684 -0.112111
C11   C     C_R   0.312014 0.892593 0.541844 -0.141094
C12   C     C_R   0.182832 0.421093 0.453684 -0.112111
C13   C     C_R   0.812014 0.392593 0.541844 -0.141096
C14   C     C_R   0.747849 0.940338 0.419512 -0.011348
C15   C     C_R   0.254967 0.938593 0.581171 -0.022603
C16   C     C_R   0.247849 0.440338 0.419512 -0.011348
C17   C     C_R   0.268553 0.381571 0.352568 0.558553
C18   C     C_R   0.754967 0.438593 0.581170 -0.022603
C19   C     C_R   0.800971 0.006318 0.454412 -0.089885
C20   C     C_R   0.209939 0.025487 0.550571 -0.094817
C21   C     C_R   0.300971 0.506319 0.454412 -0.089885
C22   C     C_R   0.709939 0.525486 0.550571 -0.094817
C23   C     C_R   0.796231 0.031454 0.525535 0.214706
C24   C     C_R   0.213333 0.050044 0.478729 0.211245
C25   C     C_R   0.296231 0.531455 0.525535 0.214705
C26   C     C_R   0.713333 0.550044 0.478729 0.211245
C27   C     C_R   0.733606 0.999550 0.563344 0.020634
C28   C     C_R   0.231612 0.881072 0.647423 0.543845
C29   C     C_R   0.267405 0.996001 0.436779 0.024318
C30   C     C_R   0.233606 0.499550 0.563344 0.020634
C31   C     C_R   0.767404 0.496001 0.436779 0.024318
C32   C     C_R   0.499884 0.056894 0.963547 -0.189815
C33   C     C_R   0.498865 0.056754 0.036166 -0.189925
C34   C     C_R   0.999870 0.556895 0.963543 -0.189816
C35   C     C_R   0.998853 0.556752 0.036162 -0.189927
C36   C     C_R   0.495560 0.166414 0.073984 0.012302
C37   C     C_R   0.503993 0.166620 0.925792 0.012574
C38   C     C_R   0.995557 0.666412 0.073983 0.012299
C39   C     C_R   0.768553 0.881571 0.352568 0.558553
C40   C     C_R   0.003989 0.666622 0.925790 0.012577
C41   C     C_R   0.499662 0.278967 0.037216 0.230356
C42   C     C_R   0.500417 0.279113 0.962584 0.230865
C43   C     C_R   0.999665 0.778966 0.037216 0.230352
C44   C     C_R   0.000419 0.779115 0.962583 0.230867
C45   C     C_R   0.531709 0.155288 0.646737 0.536536
C46   C     C_R   0.465547 0.154504 0.355114 0.540353
C47   C     C_R   0.031709 0.655288 0.646737 0.536535
C48   C     C_R   0.965546 0.654504 0.355114 0.540355
C49   C     C_R   0.817218 0.951439 0.957885 -0.156465
C50   C     C_3   0.534263 0.375106 0.455356 -0.234778
C51   C     C_R   0.183144 0.952565 0.041886 -0.155686
C52   C     C_R   0.317214 0.451452 0.957887 -0.156453
C53   C     C_R   0.683141 0.452552 0.041889 -0.155698
C54   C     C_R   0.827098 0.924249 0.028082 -0.122275
C55   C     C_R   0.173322 0.925479 0.971718 -0.120383
C56   C     C_R   0.327093 0.424264 0.028085 -0.122259
C57   C     C_R   0.673318 0.425464 0.971721 -0.120403
C58   C     C_R   0.778770 0.850864 0.064309 -0.024230
C59   C     C_R   0.221444 0.851305 0.935703 -0.024801
C60   C     C_R   0.278769 0.350869 0.064310 -0.024230
C61   C     C_3   0.544990 0.375903 0.535151 -0.225764
C62   C     C_R   0.721442 0.351300 0.935704 -0.024803
C63   C     C_R   0.722303 0.796844 0.027460 -0.133129
C64   C     C_R   0.277763 0.796795 0.972713 -0.133346
C65   C     C_R   0.222306 0.296840 0.027458 -0.133129
C66   C     C_R   0.777763 0.296794 0.972712 -0.133342
C67   C     C_R   0.709539 0.827999 0.955599 0.271728
C68   C     C_R   0.290545 0.827994 0.044529 0.271879
C69   C     C_R   0.209543 0.327994 0.955597 0.271724
C70   C     C_R   0.790546 0.327993 0.044529 0.271883
C71   C     C_R   0.757319 0.909176 0.921747 0.047189
C72   C     C_3   0.034265 0.875104 0.455355 -0.234778
C73   C     C_R   0.242844 0.909596 0.078207 0.047060
C74   C     C_R   0.257319 0.409179 0.921747 0.047190
C75   C     C_R   0.742844 0.409592 0.078208 0.047060
C76   C     C_R   0.727789 0.021523 0.640025 0.571821
C77   C     C_R   0.272208 0.020379 0.360155 0.579832
C78   C     C_R   0.227789 0.521523 0.640025 0.571821
C79   C     C_R   0.772208 0.520378 0.360155 0.579832
C80   C     C_R   0.710766 0.331182 0.859910 0.561885
C81   C     C_R   0.289317 0.331108 0.140175 0.561646
C82   C     C_R   0.210766 0.831183 0.859910 0.561886
C83   C     C_3   0.044993 0.875901 0.535150 -0.225763
C84   C     C_R   0.789317 0.831107 0.140175 0.561646
C85   C     C_R   0.531141 0.157573 0.853189 0.569238
C86   C     C_R   0.468773 0.157534 0.146740 0.568473
C87   C     C_R   0.031140 0.657573 0.853188 0.569234
C88   C     C_R   0.968772 0.657534 0.146740 0.568476
C89   C     C_R   0.742179 0.968080 0.853595 0.571913
C90   C     C_R   0.257857 0.968145 0.146396 0.570296
C91   C     C_R   0.242179 0.468079 0.853595 0.571916
C92   C     C_R   0.757857 0.468144 0.146396 0.570293
C93   C     C_R   0.483724 0.158996 0.429876 0.010307
C94   C     C_R   0.675662 0.950648 0.525733 -0.159383
C95   C     C_R   0.496853 0.162738 0.578324 0.021994
C96   C     C_R   0.983724 0.658996 0.429876 0.010306
C97   C     C_R   0.996853 0.662738 0.578324 0.021994
C98   C     C_R   0.484938 0.270164 0.466275 0.016494
C99   C     C_R   0.493821 0.271960 0.539383 0.040890
C100  C     C_R   0.984939 0.770164 0.466275 0.016494
C101  C     C_R   0.993822 0.771961 0.539383 0.040891
C102  C     C_R   0.482135 0.052740 0.543122 -0.158639
C103  C     C_R   0.479190 0.050244 0.469673 -0.160875
C104  C     C_R   0.982134 0.552741 0.543122 -0.158639
Cl1   Cl    Cl    0.875386 0.090710 0.562343 -0.642189
Cl2   Cl    Cl    0.142402 0.136986 0.444938 -0.650877
Cl3   Cl    Cl    0.375385 0.590711 0.562343 -0.642191
Cl4   Cl    Cl    0.642402 0.636986 0.444938 -0.650877
Cl5   Cl    Cl    0.507976 0.419160 0.083244 -0.634408
Cl6   Cl    Cl    0.492785 0.419696 0.916602 -0.630109
Cl7   Cl    Cl    0.007985 0.919155 0.083246 -0.634403
Cl8   Cl    Cl    0.992795 0.919701 0.916604 -0.630116
Cr1   Cr    Cr6+3 0.771950 0.169480 0.750100 1.074540
Cr2   Cr    Cr6+3 0.383410 0.010620 0.249390 1.055457
Cr3   Cr    Cr6+3 0.116590 0.510620 0.750610 1.059954
Cr4   Cr    Cr6+3 0.883410 0.510620 0.249390 1.055459
Cr5   Cr    Cr6+3 0.228050 0.169480 0.249900 1.073360
Cr6   Cr    Cr6+3 0.271950 0.669480 0.750100 1.074544
Cr7   Cr    Cr6+3 0.728050 0.669480 0.249900 1.073357
Cr8   Cr    Cr6+3 0.614930 0.323340 0.749170 1.083171
Cr9   Cr    Cr6+3 0.385070 0.323340 0.250830 1.080847
Cr10  Cr    Cr6+3 0.114930 0.823340 0.749170 1.083173
Cr11  Cr    Cr6+3 0.885070 0.823340 0.250830 1.080846
Cr12  Cr    Cr6+3 0.616590 0.010620 0.750610 1.059961
H1    H     H_    0.481195 0.966096 0.571089 0.158666
H2    H     H_    0.129205 0.967598 0.944946 0.221533
H3    H     H_    0.371373 0.465779 0.054742 0.220921
H4    H     H_    0.629198 0.467576 0.944950 0.221523
H5    H     H_    0.687997 0.733463 0.055254 0.123129
H6    H     H_    0.311911 0.732933 0.945076 0.122983
H7    H     H_    0.188003 0.233452 0.055250 0.123129
H8    H     H_    0.811913 0.232936 0.945074 0.122985
H9    H     H_    0.006120 0.957619 0.435508 0.200143
H10   H     H_    0.099579 0.848485 0.550382 0.149199
H11   H     H_    0.506117 0.457620 0.435509 0.200141
H12   H     H_    0.474187 0.962013 0.444285 0.154102
H13   H     H_    0.599576 0.348489 0.550383 0.149200
H14   H     H_    0.582873 0.349700 0.424885 0.161731
H15   H     H_    0.524381 0.459849 0.561334 0.209825
H16   H     H_    0.082875 0.849696 0.424884 0.161730
H17   H     H_    0.024385 0.959848 0.561334 0.209824
H18   H     H_    0.625903 0.931271 0.552513 0.158866
H19   H     H_    0.360473 0.878659 0.439431 0.155560
H20   H     H_    0.125903 0.431270 0.552513 0.158867
H21   H     H_    0.860472 0.378658 0.439431 0.155560
H22   H     H_    0.638915 0.880537 0.425574 0.192836
H23   H     H_    0.981193 0.466097 0.571089 0.158666
H24   H     H_    0.349551 0.830943 0.565851 0.201618
H25   H     H_    0.138915 0.380537 0.425574 0.192836
H26   H     H_    0.849551 0.330941 0.565851 0.201618
H27   H     H_    0.850580 0.029494 0.428235 0.180596
H28   H     H_    0.166652 0.065438 0.580888 0.178492
H29   H     H_    0.350579 0.529495 0.428235 0.180595
H30   H     H_    0.666652 0.565437 0.580888 0.178492
H31   H     H_    0.500840 0.969233 0.937027 0.147914
H32   H     H_    0.497397 0.968970 0.062637 0.148433
H33   H     H_    0.000820 0.469235 0.937021 0.147898
H34   H     H_    0.974185 0.462013 0.444285 0.154101
H35   H     H_    0.997379 0.468967 0.062631 0.148440
H36   H     H_    0.546511 0.752401 0.920629 0.163506
H37   H     H_    0.582058 0.832419 0.995518 0.088519
H38   H     H_    0.595824 0.668594 0.985092 0.141820
H39   H     H_    0.453420 0.750608 0.079603 0.162950
H40   H     H_    0.418023 0.830467 0.004424 0.088234
H41   H     H_    0.403745 0.666955 0.015543 0.142589
H42   H     H_    0.046515 0.252428 0.920618 0.163502
H43   H     H_    0.082065 0.332447 0.995505 0.088526
H44   H     H_    0.095810 0.168615 0.985092 0.141821
H45   H     H_    0.854693 0.013655 0.933474 0.191742
H46   H     H_    0.953419 0.250589 0.079602 0.162956
H47   H     H_    0.918026 0.330451 0.004421 0.088226
H48   H     H_    0.903737 0.166943 0.015544 0.142590
H49   H     H_    0.145752 0.015146 0.066148 0.190731
H50   H     H_    0.354687 0.513675 0.933478 0.191735
H51   H     H_    0.645747 0.515128 0.066152 0.190735
H52   H     H_    0.871382 0.965755 0.054738 0.220915
O1    O     O_R   0.787510 0.042610 0.670410 -0.424565
O2    O     O_R   0.454250 0.051070 0.169440 -0.520698
O3    O     O_R   0.045750 0.551070 0.830560 -0.520388
O4    O     O_R   0.954250 0.551070 0.169440 -0.520697
O5    O     O_R   0.681210 0.959150 0.825320 -0.445914
O6    O     O_R   0.318790 0.959150 0.174680 -0.446276
O7    O     O_R   0.181210 0.459150 0.825320 -0.445922
O8    O     O_R   0.818790 0.459150 0.174680 -0.446273
O9    O     O_3   0.667820 0.167810 0.749960 -0.322018
O10   O     O_3   0.332180 0.167810 0.250040 -0.318813
O11   O     O_3   0.167820 0.667810 0.749960 -0.322017
O12   O     O_R   0.212490 0.042610 0.329590 -0.438720
O13   O     O_3   0.832180 0.667810 0.250040 -0.318814
O14   O     O_R   0.765670 0.292090 0.675090 -0.491076
O15   O     O_R   0.234330 0.292090 0.324910 -0.472745
O16   O     O_R   0.265670 0.792090 0.675090 -0.491076
O17   O     O_R   0.734330 0.792090 0.324910 -0.472745
O18   O     O_R   0.670220 0.409020 0.668560 -0.526988
O19   O     O_R   0.329780 0.409020 0.331440 -0.524597
O20   O     O_R   0.170220 0.909020 0.668560 -0.526988
O21   O     O_R   0.829780 0.909020 0.331440 -0.524597
O22   O     O_R   0.556580 0.251590 0.674980 -0.495457
O23   O     O_R   0.287510 0.542610 0.670410 -0.424565
O24   O     O_R   0.443420 0.251590 0.325020 -0.491591
O25   O     O_R   0.056580 0.751590 0.674980 -0.495457
O26   O     O_R   0.943420 0.751590 0.325020 -0.491590
O27   O     O_R   0.545890 0.049670 0.670030 -0.533218
O28   O     O_R   0.454110 0.049670 0.329970 -0.530794
O29   O     O_R   0.045890 0.549670 0.670030 -0.533219
O30   O     O_R   0.954110 0.549670 0.329970 -0.530794
O31   O     O_R   0.681340 0.957860 0.676500 -0.500070
O32   O     O_R   0.318660 0.957860 0.323500 -0.511363
O33   O     O_R   0.181340 0.457860 0.676500 -0.500069
O34   O     O_R   0.712490 0.542610 0.329590 -0.438721
O35   O     O_R   0.818660 0.457860 0.323500 -0.511363
O36   O     O_R   0.787380 0.044010 0.830940 -0.532970
O37   O     O_R   0.212620 0.044010 0.169060 -0.535482
O38   O     O_R   0.287380 0.544010 0.830940 -0.532966
O39   O     O_R   0.712620 0.544010 0.169060 -0.535486
O40   O     O_R   0.765540 0.293390 0.823910 -0.504261
O41   O     O_R   0.234460 0.293390 0.176090 -0.506916
O42   O     O_R   0.265540 0.793390 0.823910 -0.504261
O43   O     O_R   0.734460 0.793390 0.176090 -0.506916
O44   O     O_R   0.670090 0.410410 0.829090 -0.471558
O45   O     O_R   0.556450 0.252890 0.823790 -0.454979
O46   O     O_R   0.329910 0.410410 0.170910 -0.474655
O47   O     O_R   0.170090 0.910410 0.829090 -0.471553
O48   O     O_R   0.829910 0.910410 0.170910 -0.474656
O49   O     O_3   0.654440 0.777959 0.915947 -0.536024
O50   O     O_3   0.345567 0.777621 0.084317 -0.537056
O51   O     O_3   0.154449 0.277941 0.915945 -0.536023
O52   O     O_3   0.845568 0.277624 0.084317 -0.537058
O53   O     O_R   0.443550 0.252890 0.176210 -0.456963
O54   O     O_R   0.056450 0.752890 0.823790 -0.454977
O55   O     O_R   0.943550 0.752890 0.176210 -0.456966
O56   O     O_R   0.545750 0.051070 0.830560 -0.520382

loop_
_geom_bond_atom_site_label_1
_geom_bond_atom_site_label_2
_ccdc_geom_bond_type
C3    C104  A    
C79   O34   A    
Cr1   O1    S    
Cr4   O13   S    
C6    H42   S    
Cr7   O39   S    
C16   C21   A    
C55   C59   A    
C41   C42   A    
C59   C82   S    
C43   C44   A    
C102  H1    S    
Cr8   O9    S    
C93   C103  A    
C57   H4    S    
Cr10  O11   S    
C33   H32   S    
C57   C62   A    
C80   O40   A    
C61   C99   S    
C17   O15   A    
C79   O35   A    
C81   O46   A    
C39   O17   A    
C25   Cl3   S    
C59   C64   A    
Cr8   O45   S    
C43   Cl7   S    
C13   C18   A    
C2    C29   A    
C34   C40   A    
C5    H39   S    
C40   C87   S    
C37   C85   S    
C70   O52   S    
C13   H26   S    
C91   O38   A    
C91   O7    A    
C50   H11   S    
C58   C63   A    
C72   C100  S    
Cr12  O9    S    
C68   O50   S    
C11   H24   S    
C7    O52   S    
C10   C94   A    
C95   C99   A    
C49   C54   A    
C23   Cl1   S    
C48   O26   A    
C86   O2    A    
C33   C36   A    
C5    O50   S    
C47   O25   A    
C92   O39   A    
C22   H30   S    
C34   C35   A    
C56   H3    S    
C54   H52   S    
C37   C42   A    
C51   H49   S    
C9    C13   A    
C24   C29   A    
C83   H10   S    
Cr9   O19   S    
Cr5   O15   S    
C51   C73   A    
C14   C39   S    
C11   C15   A    
C90   O6    A    
C16   C17   S    
Cr2   O2    S    
C71   C89   S    
Cr6   O42   S    
C3    H34   S    
C19   H27   S    
Cr9   O46   S    
Cr5   O41   S    
C3    C96   A    
C23   C27   A    
C8    C12   A    
Cr11  O13   S    
C52   H50   S    
C51   C55   A    
C95   C102  A    
Cr8   O44   S    
Cr10  O25   S    
C46   O28   A    
C39   O21   A    
Cr1   O9    S    
C26   C31   A    
C41   Cl5   S    
C7    H48   S    
Cr7   O43   S    
C2    H19   S    
C104  H23   S    
C36   C41   A    
C53   C75   A    
C85   O56   A    
Cr6   O16   S    
C2    C11   A    
C69   O51   S    
C65   H7    S    
C88   O4    A    
C89   O36   A    
C66   H8    S    
Cr4   O30   S    
C15   C20   A    
Cr10  O54   S    
C63   C67   A    
C50   C98   S    
Cr9   O53   S    
C62   C66   A    
Cr12  O27   S    
C94   H18   S    
C5    H40   S    
C12   C16   A    
C35   C38   A    
Cr6   O38   S    
C76   O1    A    
C92   O8    A    
C77   O32   A    
C26   Cl4   S    
C83   H17   S    
Cr3   O33   S    
C61   H15   S    
C82   O47   A    
C36   C86   S    
C68   C73   A    
Cr2   O6    S    
Cr8   O18   S    
C38   C43   A    
C20   H28   S    
C38   C88   S    
Cr7   O17   S    
C89   O5    A    
C74   C91   S    
C19   C23   A    
C103  H12   S    
Cr9   O24   S    
C80   O44   A    
Cr1   O14   S    
C84   O43   A    
C58   C84   S    
C32   H31   S    
Cr3   O11   S    
C60   C81   S    
C97   C101  A    
Cr8   O22   S    
C82   O42   A    
C55   H2    S    
C72   H16   S    
C45   O27   A    
C81   O41   A    
C6    O51   S    
C1    C18   S    
C29   C77   S    
C69   C74   A    
C8    H20   S    
C32   C37   A    
C4    O49   S    
Cr5   O37   S    
C78   O33   A    
Cr12  O56   S    
C75   C92   S    
C10   H22   S    
C44   Cl8   S    
C64   H6    S    
C60   C65   A    
C5    H41   S    
Cr10  O47   S    
Cr4   O4    S    
Cr12  O31   S    
C22   C26   A    
C12   H25   S    
C47   O29   A    
C4    H38   S    
C17   O19   A    
C76   O31   A    
C24   Cl2   S    
C78   O23   A    
C15   C28   S    
C27   C76   S    
C45   C95   S    
C64   C68   A    
C72   C83   S    
C53   H51   S    
C54   C58   A    
C62   C80   S    
C25   C30   A    
C50   C61   S    
C6    H44   S    
C21   C25   A    
C6    H43   S    
Cr2   O28   S    
C53   C57   A    
C48   C96   S    
Cr11  O26   S    
C18   C22   A    
C86   O53   A    
C14   C19   A    
Cr11  O21   S    
Cr7   O13   S    
Cr1   O36   S    
Cr10  O20   S    
Cr5   O12   S    
C47   C97   S    
C73   C90   S    
Cr3   O7    S    
Cr6   O11   S    
C50   H14   S    
C31   C79   S    
Cr9   O10   S    
Cr4   O35   S    
C87   O54   A    
Cr11  O48   S    
C66   C70   A    
C52   C74   A    
Cr2   O10   S    
Cr5   O10   S    
C8    C30   A    
C32   C33   A    
Cr3   O29   S    
C1    O18   A    
C45   O22   A    
Cr12  O5    S    
C67   O49   S    
C21   H29   S    
C1    O14   A    
C84   O48   A    
C49   H45   S    
C61   H13   S    
C72   H9    S    
C4    H36   S    
C46   C93   S    
C65   C69   A    
C46   O24   A    
C96   C100  A    
C9    H21   S    
C100  C101  A    
C28   O20   A    
Cr2   O32   S    
C67   C71   A    
C63   H5    S    
C42   Cl6   S    
C102  C103  A    
C35   H35   S    
C97   C104  A    
C9    C31   A    
Cr6   O23   S    
C87   O3    A    
C30   C78   S    
C34   H33   S    
C56   C60   A    
C40   C44   A    
C88   O55   A    
Cr11  O55   S    
C98   C99   A    
C49   C71   A    
C7    H46   S    
C48   O30   A    
C70   C75   A    
C77   O12   A    
C83   C101  S    
C4    H37   S    
C28   O16   A    
C27   C94   A    
Cr4   O8    S    
Cr1   O40   S    
C7    H47   S    
C85   O45   A    
C93   C98   A    
C20   C24   A    
C90   O37   A    
Cr3   O3    S    
C52   C56   A    
C10   C14   A    
Cr7   O34   S    
