data_str_m3_o1_o4_f0_pcu.sym.224
_audit_creation_date              2012-12-10T18:57:08-0500
_audit_creation_method            fapswitch 2.2
_symmetry_space_group_name_H-M    P1
_symmetry_Int_Tables_number       1
_space_group_crystal_system       triclinic
_cell_length_a                    10.718531
_cell_length_b                    9.833493
_cell_length_c                    10.671624
_cell_angle_alpha                 89.84915
_cell_angle_beta                  90.73968
_cell_angle_gamma                 90.005963
_cell_volume                      1124.6979367

loop_
_atom_site_label
_atom_site_type_symbol
_atom_type_description
_atom_site_fract_x
_atom_site_fract_y
_atom_site_fract_z
_atom_type_partial_charge
C1    C     C_R   0.259885 0.499990 0.501345 0.856049
C2    C     C_R   0.740147 0.500006 0.499980 0.848908
C3    C     C_R   0.568400 0.072380 0.588004 0.470710
C4    C     C_R   0.432047 0.072841 0.411701 0.473899
C5    C     C_R   0.565540 0.927342 0.588897 -0.211093
C6    C     C_R   0.434257 0.927916 0.411222 -0.169779
C7    C     C_R   0.504984 0.500160 0.260020 0.870884
C8    C     C_R   0.504134 0.499796 0.740073 0.879592
C9    C     C_R   0.536599 0.622461 0.064211 -0.115174
C10   C     C_R   0.529772 0.621436 0.936601 -0.095963
C11   C     C_R   0.527354 0.500131 0.129384 -0.107913
C12   C     C_R   0.523125 0.499259 0.871616 -0.090299
C13   C     C_R   0.541933 0.376433 0.065770 -0.193135
C14   C     C_R   0.540585 0.376142 0.936213 -0.208842
C15   C     C_3   0.457895 0.753151 0.930860 0.301425
C16   C     C_3   0.465585 0.755265 0.074152 0.237864
C17   C     C_R   0.063817 0.376269 0.503615 -0.213632
C18   C     C_R   0.936202 0.376297 0.500228 -0.208471
C19   C     C_R   0.872611 0.500230 0.500986 -0.000289
C20   C     C_R   0.127464 0.500197 0.503630 -0.006827
C21   C     C_R   0.936183 0.624317 0.503707 -0.208753
C22   C     C_R   0.063953 0.624306 0.504520 -0.197810
H1    H     H_    0.544976 0.279861 0.114823 0.202085
H2    H     H_    0.543744 0.279509 0.887995 0.215514
H3    H     H_    0.514385 0.834780 0.887062 0.127911
H4    H     H_    0.374542 0.743001 0.121328 0.104346
H5    H     H_    0.112054 0.279562 0.505481 0.143844
H6    H     H_    0.887912 0.279643 0.496773 0.143001
H7    H     H_    0.887724 0.721023 0.504597 0.153160
H8    H     H_    0.112451 0.721004 0.505471 0.158218
H9    H     H_    0.615329 0.870646 0.660483 0.159072
H10   H     H_    0.384221 0.871978 0.339549 0.175130
N1    N     N_R   0.500000 0.857200 0.500000 -0.120417
N2    N     N_R   0.500000 0.142810 0.500000 -0.165639
O1    O     O_R   0.316770 0.614620 0.499990 -0.618939
O2    O     O_R   0.683230 0.614620 0.500010 -0.635690
O3    O     O_R   0.316800 0.385290 0.500000 -0.615370
O4    O     O_R   0.683200 0.385290 0.500000 -0.613728
O5    O     O_R   0.500000 0.614690 0.316780 -0.631367
O6    O     O_R   0.500000 0.614690 0.683220 -0.602859
O7    O     O_R   0.500020 0.385360 0.316780 -0.570647
O8    O     O_R   0.499980 0.385360 0.683220 -0.580538
Zn1   Zn    Zn3+2 0.500000 0.653120 0.500000 0.951914
Zn2   Zn    Zn3+2 0.500000 0.346880 0.500000 1.009263
O9    O     O_3   0.334154 0.752299 0.879422 -0.597980
C23   C     C_3   0.261664 0.635438 0.906580 0.138792
H11   H     H_    0.287028 0.584632 0.996377 0.115233
H12   H     H_    0.271037 0.560745 0.829513 0.147990
C24   C     C_3   0.125108 0.676519 0.912835 -0.843858
H13   H     H_    0.094574 0.722694 0.822387 0.263828
H14   H     H_    0.066692 0.585616 0.931606 0.209733
H15   H     H_    0.111938 0.751424 0.989280 0.247821
O10   O     O_3   0.529547 0.873488 0.118712 -0.606942
C25   C     C_3   0.657826 0.853416 0.145253 0.144487
H16   H     H_    0.708016 0.823401 0.058988 0.129295
H17   H     H_    0.671386 0.774931 0.219393 0.171564
C26   C     C_3   0.714088 0.985787 0.193110 -0.830188
H18   H     H_    0.670002 0.015409 0.282536 0.249875
H19   H     H_    0.815876 0.972635 0.209689 0.195011
H20   H     H_    0.699076 0.068107 0.123190 0.255316
O11   O     O_3   0.629652 0.145333 0.681282 -0.587215
C27   C     C_3   0.754882 0.102720 0.699159 0.089456
H21   H     H_    0.815292 0.193963 0.692252 0.172096
H22   H     H_    0.789331 0.029266 0.627977 0.099874
C28   C     C_3   0.772540 0.044252 0.830519 -0.876238
H23   H     H_    0.713187 0.953127 0.843401 0.239576
H24   H     H_    0.871634 0.014873 0.845640 0.219970
H25   H     H_    0.747135 0.121746 0.901219 0.260651
O12   O     O_3   0.373407 0.145651 0.316446 -0.568198
C29   C     C_3   0.246189 0.109369 0.301855 0.083874
H26   H     H_    0.189808 0.203309 0.310958 0.167408
H27   H     H_    0.210759 0.036125 0.373122 0.092255
C30   C     C_3   0.222791 0.053642 0.170653 -0.812390
H28   H     H_    0.275683 0.958224 0.157227 0.263136
H29   H     H_    0.121817 0.032121 0.157012 0.197632
H30   H     H_    0.252455 0.129181 0.099412 0.268520

loop_
_geom_bond_atom_site_label_1
_geom_bond_atom_site_label_2
_ccdc_geom_bond_type
C5    H9    S    
C6    H10   S    
C25   H17   S    
O4    Zn2   S    
C29   H26   S    
C13   C14   A    
O1    Zn1   S    
C9    C10   A    
C2    O4    A    
C3    N2    A    
C6    N1    A    
C1    O3    A    
C8    C12   S    
C24   H15   S    
N1    Zn1   S    
C28   H25   S    
O3    Zn2   S    
C3    O11   S    
C17   C18   A    
O2    Zn1   S    
N2    Zn2   S    
C23   H11   S    
O9    C23   S    
C7    C11   S    
C30   H29   S    
C23   C24   S    
C9    C11   A    
C26   H18   S    
O12   C29   S    
O8    Zn2   S    
C29   C30   S    
C10   C12   A    
C4    O12   S    
C19   C21   A    
C9    C16   S    
C8    O8    A    
C24   H13   S    
C4    N2    A    
C10   C15   S    
C7    O7    A    
C16   H4    S    
O11   C27   S    
O7    Zn2   S    
C23   H12   S    
C26   H19   S    
C15   H3    S    
C15   C16   S    
C15   O9    S    
C2    O2    A    
C25   H16   S    
C17   H5    S    
C12   C14   A    
C11   C13   A    
C17   C20   A    
C18   H6    S    
C30   H30   S    
C13   H1    S    
C4    C6    A    
C28   H23   S    
C30   H28   S    
O5    Zn1   S    
C14   H2    S    
C8    O6    A    
C1    O1    A    
C7    O5    A    
C16   O10   S    
C18   C19   A    
C26   H20   S    
C27   H22   S    
C22   H8    S    
C27   C28   S    
C3    C5    A    
C2    C19   S    
C21   C22   A    
C24   H14   S    
C21   H7    S    
C29   H27   S    
O6    Zn1   S    
C27   H21   S    
C28   H24   S    
O10   C25   S    
C20   C22   A    
C1    C20   S    
C25   C26   S    
C5    N1    A    
