data_str_m4_o14_o14_f0_acs.sym.1
_audit_creation_date              2012-12-11T14:17:49-0500
_audit_creation_method            fapswitch 2.2
_symmetry_space_group_name_H-M    P1
_symmetry_Int_Tables_number       1
_space_group_crystal_system       triclinic
_cell_length_a                    11.08892
_cell_length_b                    11.177557
_cell_length_c                    18.890877
_cell_angle_alpha                 89.304236
_cell_angle_beta                  90.073129
_cell_angle_gamma                 120.620771
_cell_volume                      2014.78651285

loop_
_atom_site_label
_atom_site_type_symbol
_atom_type_description
_atom_site_fract_x
_atom_site_fract_y
_atom_site_fract_z
_atom_type_partial_charge
C1    C     C_R   0.518950 0.456252 0.146630 0.549648
C2    C     C_R   0.931349 0.389200 0.545802 -0.184848
C3    C     C_R   0.438011 0.038700 0.540921 -0.149697
C4    C     C_R   0.613391 0.554206 0.545560 -0.147078
C5    C     C_R   0.709658 0.933792 0.550761 -0.089876
C6    C     C_R   0.049849 0.764481 0.551596 -0.085326
C7    C     C_R   0.220800 0.370378 0.544494 -0.073871
C8    C     C_R   0.122204 0.745565 0.413474 -0.076924
C9    C     C_R   0.622790 0.868974 0.411535 -0.077016
C10   C     C_R   0.263745 0.238239 0.436418 -0.092561
C11   C     C_R   0.771805 0.881234 0.506687 -0.146756
C12   C     C_R   0.543559 0.062970 0.146845 0.539634
C13   C     C_R   0.101763 0.878818 0.506231 -0.150553
C14   C     C_R   0.108331 0.250407 0.517544 -0.122949
C15   C     C_R   0.138586 0.869291 0.437203 -0.114668
C16   C     C_R   0.724497 0.843311 0.437976 -0.110707
C17   C     C_R   0.129554 0.185963 0.462124 -0.150575
C18   C     C_R   0.545174 0.417333 0.361173 0.557265
C19   C     C_R   0.541621 0.060097 0.353052 0.519801
C20   C     C_R   0.934778 0.478684 0.354500 0.523677
C21   C     C_R   0.449779 0.524087 0.642884 0.540118
C22   C     C_R   0.059710 0.545117 0.646620 0.528407
C23   C     C_R   0.939120 0.483088 0.147619 0.538919
C24   C     C_R   0.483256 0.935084 0.645002 0.543199
C25   C     C_R   0.507152 0.993625 0.925064 -0.005186
C26   C     C_R   0.011454 0.513453 0.927071 -0.006297
C27   C     C_R   0.489466 0.491285 0.924403 -0.007066
C28   C     C_R   0.999690 0.511261 0.075980 -0.007183
C29   C     C_R   0.512213 0.008683 0.074152 -0.005442
C30   C     C_R   0.496803 0.486091 0.073284 -0.007568
C31   C     C_R   0.406025 0.009615 0.961279 0.032708
C32   C     C_R   0.004360 0.402232 0.966305 0.033264
C33   C     C_R   0.606771 0.593060 0.960512 0.033009
C34   C     C_R   0.456946 0.517632 0.852529 0.542983
C35   C     C_R   0.018244 0.412237 0.040773 0.032329
C36   C     C_R   0.398263 0.998105 0.036092 0.032925
C37   C     C_R   0.601003 0.600715 0.035008 0.032482
C38   C     C_R   0.619211 0.004182 0.036776 -0.138515
C39   C     C_R   0.998242 0.617369 0.036383 -0.138738
C40   C     C_R   0.386484 0.377575 0.036042 -0.136633
C41   C     C_R   0.006712 0.619839 0.963545 -0.136955
C42   C     C_R   0.615261 0.993975 0.963919 -0.139397
C43   C     C_R   0.381014 0.381977 0.963247 -0.137438
C44   C     C_R   0.311206 0.035440 0.925080 -0.087089
C45   C     C_R   0.063428 0.543777 0.853491 0.537889
C46   C     C_R   0.980373 0.279658 0.934310 -0.088921
C47   C     C_R   0.728135 0.690283 0.924294 -0.086671
C48   C     C_R   0.044516 0.319044 0.078123 -0.082334
C49   C     C_R   0.276211 0.975828 0.070017 -0.090266
C50   C     C_R   0.698211 0.723945 0.068181 -0.090033
C51   C     C_R   0.197823 0.025426 0.960580 -0.138527
C52   C     C_R   0.987914 0.179217 0.974360 -0.145852
C53   C     C_R   0.828233 0.806594 0.958806 -0.140531
C54   C     C_R   0.028151 0.202649 0.045069 -0.137292
C55   C     C_R   0.175865 0.986831 0.031885 -0.140993
C56   C     C_R   0.481971 0.937537 0.852874 0.540187
C57   C     C_R   0.808068 0.827756 0.029347 -0.145945
C58   C     C_R   0.512629 0.983152 0.571301 0.003714
C59   C     C_R   0.999668 0.521173 0.574666 -0.007214
C60   C     C_R   0.476700 0.502017 0.570054 0.009953
C61   C     C_R   0.985214 0.492484 0.427182 0.003591
C62   C     C_R   0.502955 0.001704 0.424221 -0.002594
C63   C     C_R   0.521709 0.430738 0.436021 -0.000670
C64   C     C_R   0.596383 0.948996 0.526903 0.034736
C65   C     C_R   0.036214 0.637726 0.528967 0.041016
C66   C     C_R   0.360616 0.412140 0.526965 0.021147
C67   C     C_R   0.443961 0.058011 0.468531 -0.147131
C68   C     C_R   0.054201 0.625233 0.456553 0.019949
C69   C     C_R   0.568676 0.934335 0.453985 0.024281
C70   C     C_R   0.383091 0.358211 0.465889 0.035866
C71   C     C_R   0.919985 0.374519 0.472325 -0.147319
C72   C     C_R   0.635592 0.523729 0.477381 -0.161024
Cr1   Cr    Cr6+3 0.768550 0.541320 0.250660 0.998088
Cr2   Cr    Cr6+3 0.458680 0.227230 0.250660 0.986786
Cr3   Cr    Cr6+3 0.772770 0.231450 0.250660 1.006308
Cr4   Cr    Cr6+3 0.541320 0.768550 0.749340 1.001984
Cr5   Cr    Cr6+3 0.227230 0.458680 0.749340 1.000759
Cr6   Cr    Cr6+3 0.231450 0.772770 0.749340 1.005120
H1    H     H_    0.708963 0.011714 0.063642 0.154004
H2    H     H_    0.075507 0.334271 0.133161 0.126331
H3    H     H_    0.255429 0.946134 0.125343 0.125786
H4    H     H_    0.686950 0.743412 0.123042 0.125602
H5    H     H_    0.128736 0.047143 0.931185 0.094610
H6    H     H_    0.961807 0.084329 0.949581 0.097434
H7    H     H_    0.917702 0.879682 0.928736 0.095781
H8    H     H_    0.043839 0.131199 0.076255 0.093675
H9    H     H_    0.083427 0.966488 0.059161 0.098427
H10   H     H_    0.875366 0.923267 0.055078 0.097120
H11   H     H_    0.405692 0.120617 0.447132 0.126552
H12   H     H_    0.985422 0.696830 0.061366 0.156764
H13   H     H_    0.858182 0.271006 0.450960 0.154972
H14   H     H_    0.741661 0.572610 0.456842 0.140924
H15   H     H_    0.886840 0.298536 0.580334 0.113409
H16   H     H_    0.380289 0.072249 0.573257 0.131114
H17   H     H_    0.702284 0.620318 0.578524 0.122915
H18   H     H_    0.759262 0.970054 0.601398 0.138556
H19   H     H_    0.012090 0.775499 0.602333 0.136060
H20   H     H_    0.198995 0.430163 0.579413 0.174642
H21   H     H_    0.151765 0.741504 0.359298 0.123496
H22   H     H_    0.591975 0.844577 0.356745 0.127018
H23   H     H_    0.304517 0.286595 0.063023 0.157903
H24   H     H_    0.267832 0.175716 0.395219 0.142265
H25   H     H_    0.855957 0.868659 0.526462 0.104320
H26   H     H_    0.113836 0.974432 0.525666 0.115177
H27   H     H_    0.004517 0.205609 0.539296 0.112888
H28   H     H_    0.177245 0.955656 0.400840 0.100264
H29   H     H_    0.770973 0.799833 0.404239 0.131773
H30   H     H_    0.042215 0.094255 0.439301 0.116989
H31   H     H_    0.012232 0.707872 0.935975 0.157623
H32   H     H_    0.696148 0.982889 0.938265 0.154466
H33   H     H_    0.288486 0.301333 0.937608 0.156341
H34   H     H_    0.324899 0.065391 0.869673 0.125830
H35   H     H_    0.949129 0.257350 0.879552 0.126769
H36   H     H_    0.745915 0.677679 0.869265 0.123029
O1    O     O_R   0.910960 0.572410 0.171010 -0.526628
O2    O     O_R   0.528530 0.639750 0.824400 -0.503902
O3    O     O_R   0.111220 0.471470 0.824400 -0.505018
O4    O     O_R   0.360250 0.888780 0.824400 -0.504653
O5    O     O_R   0.909330 0.572400 0.331540 -0.537838
O6    O     O_R   0.427600 0.336930 0.331540 -0.536912
O7    O     O_R   0.663070 0.090670 0.331540 -0.522038
O8    O     O_R   0.572400 0.909330 0.668460 -0.543180
O9    O     O_R   0.336930 0.427600 0.668460 -0.534867
O10   O     O_R   0.090670 0.663070 0.668460 -0.530816
O11   O     O_R   0.638240 0.528520 0.324410 -0.501988
O12   O     O_R   0.427590 0.338550 0.171010 -0.521783
O13   O     O_R   0.471480 0.109720 0.324410 -0.537300
O14   O     O_R   0.890280 0.361760 0.324410 -0.503031
O15   O     O_R   0.528520 0.638240 0.675590 -0.505383
O16   O     O_R   0.109720 0.471480 0.675590 -0.524607
O17   O     O_R   0.361760 0.890280 0.675590 -0.495573
O18   O     O_3   0.666667 0.333333 0.250630 -0.263576
O19   O     O_3   0.333333 0.666667 0.749370 -0.246343
O20   O     O_R   0.661450 0.089040 0.171010 -0.523440
O21   O     O_R   0.572410 0.910960 0.828990 -0.526549
O22   O     O_R   0.338550 0.427590 0.828990 -0.523632
O23   O     O_R   0.089040 0.661450 0.828990 -0.525880
O24   O     O_R   0.639750 0.528530 0.175600 -0.499963
O25   O     O_R   0.471470 0.111220 0.175600 -0.507112
O26   O     O_R   0.888780 0.360250 0.175600 -0.500330

loop_
_geom_bond_atom_site_label_1
_geom_bond_atom_site_label_2
_ccdc_geom_bond_type
C25   C31   A    
C47   H36   S    
C26   C32   A    
Cr1   O5    S    
C7    H20   S    
Cr2   O18   S    
C12   C29   S    
C61   C68   A    
C25   C56   S    
C56   O21   A    
Cr3   O20   S    
C39   C41   A    
Cr2   O12   S    
C27   C33   A    
C48   C54   A    
C29   C36   A    
C43   H33   S    
C62   C67   A    
C15   H28   S    
Cr6   O4    S    
C9    C16   A    
C9    C69   A    
C20   O14   A    
Cr5   O3    S    
Cr3   O26   S    
C18   O11   A    
C72   H14   S    
C18   C63   S    
Cr1   O24   S    
C19   C62   S    
C34   O2    A    
C46   C52   A    
C67   H11   S    
C10   C70   A    
Cr3   O14   S    
C11   C16   A    
C49   H3    S    
C20   C61   S    
C52   H6    S    
C14   H27   S    
C16   H29   S    
C40   H23   S    
C18   O6    A    
C7    C14   A    
C28   C35   A    
C29   C38   A    
Cr5   O22   S    
Cr6   O10   S    
C39   H12   S    
C26   C45   S    
C47   C53   A    
C61   C71   A    
Cr1   O18   S    
C60   C66   A    
C41   H31   S    
C22   O16   A    
C14   C17   A    
Cr5   O19   S    
C35   C48   A    
C24   O8    A    
Cr4   O21   S    
C52   C54   A    
C62   C69   A    
C6    C65   A    
C27   C34   S    
C58   C64   A    
C31   C44   A    
C32   C35   A    
C23   O26   A    
C10   H24   S    
C1    O12   A    
C21   C60   S    
C17   H30   S    
C22   C59   S    
C54   H8    S    
C53   C57   A    
C2    C59   A    
C11   H25   S    
C28   C39   A    
C49   C55   A    
C33   C37   A    
C30   C37   A    
C21   O9    A    
Cr6   O17   S    
C6    H19   S    
C3    C58   A    
Cr5   O9    S    
C4    H17   S    
Cr4   O15   S    
Cr2   O13   S    
C63   C70   A    
C34   O22   A    
C65   C68   A    
C4    C60   A    
C45   O23   A    
C12   O25   A    
C30   C40   A    
C23   C28   S    
C13   H26   S    
C21   O15   A    
C44   H34   S    
C44   C51   A    
C8    C68   A    
C9    H22   S    
C13   C15   A    
C5    C11   A    
C33   C47   A    
C2    C71   A    
Cr6   O23   S    
C51   H5    S    
C4    C72   A    
C5    H18   S    
Cr2   O6    S    
Cr3   O18   S    
C50   H4    S    
C45   O3    A    
C19   O7    A    
C46   H35   S    
Cr3   O7    S    
C50   C57   A    
C32   C46   A    
C8    H21   S    
C2    H15   S    
C3    C67   A    
C25   C42   A    
C53   H7    S    
Cr4   O19   S    
C22   O10   A    
C8    C15   A    
C64   C69   A    
Cr2   O25   S    
Cr1   O1    S    
C57   H10   S    
Cr4   O8    S    
C40   C43   A    
C48   H2    S    
C42   H32   S    
C59   C65   A    
C7    C66   A    
C56   O4    A    
C37   C50   A    
C24   O17   A    
C66   C70   A    
Cr1   O11   S    
C19   O13   A    
C1    C30   S    
Cr4   O2    S    
C3    H16   S    
C51   C55   A    
Cr5   O16   S    
C55   H9    S    
Cr6   O19   S    
C36   C49   A    
C23   O1    A    
C38   C42   A    
C27   C43   A    
C71   H13   S    
C63   C72   A    
C5    C64   A    
C24   C58   S    
C38   H1    S    
C31   C36   A    
C12   O20   A    
C10   C17   A    
C20   O5    A    
C1    O24   A    
C26   C41   A    
C6    C13   A    
