data_str_m9_o16_o24_f0_sra.sym.111
_audit_creation_date              2012-12-11T15:13:40-0500
_audit_creation_method            fapswitch 2.2
_symmetry_space_group_name_H-M    P1
_symmetry_Int_Tables_number       1
_space_group_crystal_system       triclinic
_cell_length_a                    6.948112
_cell_length_b                    13.495857
_cell_length_c                    20.127073
_cell_angle_alpha                 104.186415
_cell_angle_beta                  90.199357
_cell_angle_gamma                 90.449288
_cell_volume                      1829.68860053

loop_
_atom_site_label
_atom_site_type_symbol
_atom_type_description
_atom_site_fract_x
_atom_site_fract_y
_atom_site_fract_z
_atom_type_partial_charge
O1    O     O_R   0.506780 0.600060 0.449950 -0.541255
O2    O     O_R   0.179840 0.597110 0.589410 -0.546082
O3    O     O_R   0.004570 0.399940 0.550050 -0.537751
C1    C     C_R   0.348411 0.618884 0.616877 0.679272
O4    O     O_R   0.177380 0.612160 0.452890 -0.542873
O5    O     O_R   0.002100 0.415100 0.412560 -0.537600
C2    C     C_R   0.346230 0.638734 0.436266 0.689819
O6    O     O_R   0.509250 0.584900 0.587440 -0.542084
O7    O     O_3   0.337570 0.435330 0.486930 -0.361457
V1    V     V_3+5 0.064650 0.512000 0.502430 1.427845
O8    O     O_R   0.672090 0.402890 0.410590 -0.538291
C3    C     C_R   0.840009 0.381479 0.382891 0.687078
O9    O     O_R   0.674540 0.387840 0.547110 -0.538990
C4    C     C_R   0.843121 0.361048 0.563650 0.700409
V2    V     V_3+5 0.564040 0.488000 0.497570 1.442445
O10   O     O_3   0.840990 0.564670 0.513070 -0.374740
C5    C     C_R   0.868058 0.106723 0.607454 -0.163350
H1    H     H_    0.862387 0.156428 0.514041 0.110791
H2    H     H_    0.881869 0.980595 0.689640 0.117137
H3    H     H_    0.875740 0.026796 0.580498 0.113312
C6    C     C_R   0.851103 0.283508 0.603017 -0.032548
C7    C     C_R   0.848549 0.318768 0.932768 -0.183859
C8    C     C_R   0.837813 0.395435 0.897849 -0.093994
C9    C     C_R   0.839753 0.371356 0.826458 -0.145644
C10   C     C_R   0.852508 0.268596 0.787783 0.066553
C11   C     C_R   0.862149 0.190202 0.824029 0.071291
C12   C     C_R   0.855359 0.241002 0.714518 0.075115
C13   C     C_R   0.865771 0.135967 0.679390 0.146405
C14   C     C_R   0.873984 0.060749 0.716120 -0.216396
C15   C     C_R   0.872704 0.087232 0.787224 -0.202489
C16   C     C_R   0.848591 0.313880 0.674614 -0.218170
C17   C     C_R   0.860573 0.180138 0.569513 -0.166031
C18   C     C_R   0.860576 0.216526 0.896654 -0.073350
H4    H     H_    0.841662 0.394845 0.697260 0.093084
H5    H     H_    0.846728 0.339175 0.988306 0.101517
H6    H     H_    0.830241 0.435124 0.803339 0.123778
H7    H     H_    0.827528 0.474400 0.926388 0.146611
H8    H     H_    0.879853 0.025872 0.813141 0.117174
C19   C     C_3   0.761911 0.163358 0.248151 -0.121840
C20   C     C_3   0.937170 0.204777 0.294692 -0.120647
H9    H     H_    0.999614 0.167019 0.332793 0.133835
H10   H     H_    0.686895 0.089701 0.245441 0.119904
C21   C     C_3   0.847338 0.311818 0.311981 -0.014391
C22   C     C_3   0.671510 0.271164 0.266237 -0.093002
C23   C     C_3   0.775722 0.296841 0.204531 -0.163535
C24   C     C_3   0.951419 0.338321 0.251049 -0.143123
C25   C     C_3   0.041621 0.230400 0.233016 -0.101248
C26   C     C_3   0.865737 0.189813 0.187319 -0.026380
H11   H     H_    0.518862 0.288555 0.280124 0.128764
H12   H     H_    0.709337 0.334353 0.166884 0.104053
H13   H     H_    0.029710 0.410927 0.252684 0.102080
H14   H     H_    0.194276 0.213102 0.219020 0.115480
C27   C     C_3   0.457545 0.793524 0.707326 -0.131541
C28   C     C_3   0.277161 0.840210 0.748255 -0.155224
H15   H     H_    0.211797 0.914668 0.747379 0.116548
H16   H     H_    0.541236 0.828666 0.671997 0.101145
C29   C     C_3   0.358443 0.811688 0.812380 -0.044887
C30   C     C_3   0.539174 0.765625 0.772158 -0.117563
C31   C     C_3   0.436169 0.659972 0.751425 -0.172346
C32   C     C_3   0.257168 0.707557 0.791615 0.004017
C33   C     C_3   0.173421 0.734781 0.727447 -0.154789
C34   C     C_3   0.354637 0.688881 0.687448 -0.014190
H17   H     H_    0.690240 0.778676 0.790637 0.118830
H18   H     H_    0.501230 0.585496 0.752532 0.109220
H19   H     H_    0.022136 0.721677 0.709204 0.111689
C35   C     C_R   0.363032 0.893934 0.394441 -0.154837
H20   H     H_    0.359723 0.842607 0.487119 0.101732
H21   H     H_    0.366674 0.973115 0.423024 0.132315
C36   C     C_R   0.354971 0.716779 0.397485 -0.027446
C37   C     C_R   0.351497 0.681823 0.068147 -0.154151
C38   C     C_R   0.345074 0.605279 0.103228 -0.122239
C39   C     C_R   0.345946 0.629848 0.174603 -0.160145
C40   C     C_R   0.353080 0.733054 0.213229 0.080270
C41   C     C_R   0.357855 0.811226 0.176829 0.055648
C42   C     C_R   0.355770 0.760956 0.286513 0.063656
C43   C     C_R   0.361163 0.866383 0.322026 0.089896
C44   C     C_R   0.364517 0.942190 0.284770 -0.051451
C45   C     C_R   0.363236 0.914458 0.213399 -0.251662
C46   C     C_R   0.353423 0.687396 0.325990 -0.207111
C47   C     C_R   0.359432 0.819718 0.431609 -0.180653
C48   C     C_R   0.357791 0.784375 0.104104 -0.070973
H22   H     H_    0.349515 0.606422 0.303146 0.087497
H23   H     H_    0.351533 0.661056 0.012596 0.121646
H24   H     H_    0.340636 0.565838 0.197603 0.101480
H25   H     H_    0.339772 0.525972 0.074858 0.120727
H26   H     H_    0.366645 0.974914 0.186508 0.117741
O11   O     O_R   0.203580 0.914920 0.912610 -0.538709
O12   O     O_R   0.535710 0.887810 0.047120 -0.540111
O13   O     O_R   0.710730 0.084950 0.087430 -0.541631
C49   C     C_R   0.366957 0.861843 0.064380 0.695944
O14   O     O_R   0.533010 0.902850 0.910600 -0.543655
O15   O     O_R   0.708010 0.100090 0.949930 -0.539292
C50   C     C_R   0.364525 0.881425 0.883046 0.690624
O16   O     O_R   0.206300 0.899780 0.050100 -0.535540
O17   O     O_3   0.375170 0.064580 0.013100 -0.373458
V3    V     V_3+5 0.648200 0.988020 0.997570 1.432386
O18   O     O_R   0.038030 0.112330 0.952840 -0.542034
C51   C     C_R   0.869364 0.138606 0.936000 0.685685
O19   O     O_R   0.040730 0.097300 0.089360 -0.545920
C52   C     C_R   0.872806 0.119274 0.116810 0.679132
V4    V     V_3+5 0.148780 0.012220 0.002360 1.430045
O20   O     O_3   0.871930 0.935430 0.986900 -0.364371
C53   C     C_1   0.146449 0.660946 0.838138 0.254349
N1    N     N_1   0.059142 0.624432 0.874981 -0.389140
C54   C     C_1   0.371475 0.049872 0.318764 0.241344
N2    N     N_1   0.377992 0.135827 0.346346 -0.391127

loop_
_geom_bond_atom_site_label_1
_geom_bond_atom_site_label_2
_ccdc_geom_bond_type
C22   H11   S    
C20   C25   S    
C35   H21   S    
O12   V3    S    
V4    O20   S    
V3    O20   S    
C40   C41   A    
O17   V3    S    
C1    O6    A    
O18   C51   A    
O15   C51   A    
C27   C28   S    
C7    H5    S    
C6    C16   A    
C31   H18   S    
C9    H6    S    
C4    C6    S    
C13   C14   A    
C3    C21   S    
O5    C3    A    
C27   H16   S    
V2    O10   S    
C1    C34   S    
O15   V3    S    
C5    H3    S    
C15   H8    S    
C18   C51   S    
C24   C25   S    
C37   C48   A    
O14   V3    S    
O11   V4    S    
O8    V2    S    
C20   C21   S    
C25   C26   S    
O16   V4    S    
C8    C9    A    
C37   C38   A    
O1    V2    S    
C32   C53   S    
O7    V1    S    
C45   H26   S    
C31   C32   S    
C29   C50   S    
O9    C4    A    
C40   C42   A    
C49   O16   A    
C19   H10   S    
C26   C52   S    
C6    C17   A    
O13   C52   A    
C12   C16   A    
C9    C10   A    
C19   C20   S    
O4    C2    A    
C29   C32   S    
C10   C11   A    
C44   C45   A    
C24   H13   S    
C32   C33   S    
C25   H14   S    
O2    C1    A    
C42   C43   A    
C2    C36   S    
C14   C15   A    
C8    H7    S    
O14   C50   A    
C27   C34   S    
C11   C18   A    
O19   C52   A    
C27   C30   S    
C35   C43   A    
C16   H4    S    
C23   C24   S    
C43   C44   A    
C37   H23   S    
C39   H24   S    
O3    C4    A    
C48   C49   S    
C20   H9    S    
O19   V4    S    
O12   C49   A    
C11   C15   A    
O6    V2    S    
O9    V2    S    
C21   C22   S    
C36   C46   A    
H1    C17   S    
C41   C48   A    
O2    V1    S    
C53   N1    T    
C22   C23   S    
C23   C26   S    
C30   H17   S    
C7    C18   A    
C28   H15   S    
C31   C34   S    
O1    C2    A    
C5    C13   A    
H20   C47   S    
C39   C40   A    
O5    V1    S    
C46   H22   S    
O8    C3    A    
C19   C22   S    
C28   C33   S    
C10   C12   A    
C35   C47   A    
C54   N2    T    
O13   V3    S    
C44   C54   S    
C30   C31   S    
O4    V1    S    
O3    V1    S    
V1    O10   S    
C29   C30   S    
C23   H12   S    
C38   H25   S    
O11   C50   A    
O7    V2    S    
C33   C34   S    
C21   C24   S    
C33   H19   S    
C38   C39   A    
C41   C45   A    
C12   C13   A    
C5    C17   A    
C7    C8    A    
C36   C47   A    
C42   C46   A    
O18   V4    S    
O17   V4    S    
C19   C26   S    
C28   C29   S    
H2    C14   S    
