data_str_m3_o38_o38_f0_fof.sym.110
_audit_creation_date              2012-12-10T16:32:36-0500
_audit_creation_method            fapswitch 2.2
_symmetry_space_group_name_H-M    P1
_symmetry_Int_Tables_number       1
_space_group_crystal_system       triclinic
_cell_length_a                    17.028311
_cell_length_b                    17.028307
_cell_length_c                    17.028307
_cell_angle_alpha                 65.991143
_cell_angle_beta                  65.991152
_cell_angle_gamma                 65.991207
_cell_volume                      3944.10294307

loop_
_atom_site_label
_atom_site_type_symbol
_atom_type_description
_atom_site_fract_x
_atom_site_fract_y
_atom_site_fract_z
_atom_type_partial_charge
C1    C     C_R   0.586248 0.034517 0.593656 -0.037748
C2    C     C_R   0.821348 0.562304 0.037234 0.883397
C3    C     C_R   0.178941 0.698073 0.026895 -0.118055
C4    C     C_R   0.202030 0.692135 0.940565 -0.128781
C5    C     C_R   0.254578 0.611183 0.920795 -0.097647
C6    C     C_R   0.290472 0.926565 0.556162 0.160817
C7    C     C_R   0.315655 0.837511 0.609020 -0.168715
C8    C     C_R   0.291442 0.817964 0.702197 -0.118478
C9    C     C_R   0.239206 0.886735 0.742725 -0.137400
C10   C     C_R   0.213177 0.974952 0.690309 -0.137374
C11   C     C_R   0.241024 0.995567 0.597033 -0.058298
C12   C     C_R   0.722565 0.010220 0.466445 0.176420
C13   C     C_R   0.434693 0.969360 0.178493 0.886602
C14   C     C_R   0.747693 0.922932 0.460656 -0.126703
C15   C     C_R   0.793864 0.905375 0.377865 -0.148896
C16   C     C_R   0.821061 0.973095 0.301933 -0.118051
C17   C     C_R   0.797966 0.059426 0.307868 -0.128779
C18   C     C_R   0.745419 0.079197 0.388820 -0.097646
C19   C     C_R   0.556161 0.290469 0.926573 0.160818
C20   C     C_R   0.609022 0.315647 0.837519 -0.168711
C21   C     C_R   0.702200 0.291428 0.817976 -0.118477
C22   C     C_R   0.742724 0.239191 0.886750 -0.137399
C23   C     C_R   0.690303 0.213170 0.974967 -0.137366
C24   C     C_R   0.562304 0.037234 0.821348 0.883397
C25   C     C_R   0.597027 0.241022 0.995578 -0.058299
C26   C     C_R   0.466444 0.722564 0.010222 0.176419
C27   C     C_R   0.460654 0.747689 0.922935 -0.126704
C28   C     C_R   0.377863 0.793858 0.905379 -0.148897
C29   C     C_R   0.301931 0.821055 0.973098 -0.118049
C30   C     C_R   0.307867 0.797963 0.059428 -0.128783
C31   C     C_R   0.388819 0.745419 0.079199 -0.097648
C32   C     C_R   0.926571 0.556161 0.290470 0.160818
C33   C     C_R   0.837516 0.609020 0.315648 -0.168721
C34   C     C_R   0.817971 0.702198 0.291431 -0.118474
C35   C     C_R   0.565307 0.821507 0.030640 0.886603
C36   C     C_R   0.886743 0.742725 0.239195 -0.137399
C37   C     C_R   0.974960 0.690307 0.213172 -0.137375
C38   C     C_R   0.995574 0.597031 0.241023 -0.058295
C39   C     C_R   0.010223 0.466443 0.722563 0.176418
C40   C     C_R   0.922936 0.460654 0.747685 -0.126705
C41   C     C_R   0.905380 0.377863 0.793854 -0.148897
C42   C     C_R   0.973098 0.301931 0.821053 -0.118052
C43   C     C_R   0.059428 0.307867 0.797964 -0.128780
C44   C     C_R   0.079200 0.388819 0.745420 -0.097646
C45   C     C_1   0.713448 0.109260 0.710893 0.236922
C46   C     C_R   0.437696 0.178652 0.962766 0.883397
C47   C     C_1   0.289106 0.890740 0.286552 0.236921
C48   C     C_1   0.109260 0.710894 0.713448 0.236921
C49   C     C_1   0.890740 0.286552 0.289107 0.236921
C50   C     C_1   0.710894 0.713448 0.109259 0.236921
C51   C     C_1   0.286552 0.289106 0.890740 0.236921
C52   C     C_R   0.030640 0.565307 0.821507 0.886601
C53   C     C_R   0.962766 0.437696 0.178652 0.883397
C54   C     C_R   0.821507 0.030640 0.565307 0.886604
C55   C     C_R   0.178652 0.962766 0.437696 0.883395
C56   C     C_R   0.536965 0.017082 0.550167 0.139027
C57   C     C_R   0.406344 0.965481 0.413752 -0.037747
C58   C     C_R   0.449833 0.982915 0.463036 0.139030
C59   C     C_R   0.017087 0.550166 0.536964 0.139030
C60   C     C_R   0.982920 0.463035 0.449832 0.139025
C61   C     C_R   0.550167 0.536965 0.017082 0.139029
C62   C     C_R   0.463035 0.449835 0.982915 0.139030
C63   C     C_R   0.543044 0.928524 0.561520 -0.187706
C64   C     C_R   0.438473 0.071473 0.456964 -0.187711
C65   C     C_R   0.928529 0.561528 0.543034 -0.187714
C66   C     C_R   0.071478 0.456953 0.438482 -0.187702
C67   C     C_R   0.498435 0.483465 0.088514 -0.159308
C68   C     C_R   0.034521 0.593655 0.586247 -0.037747
C69   C     C_R   0.516535 0.501567 0.911482 -0.159308
C70   C     C_R   0.501569 0.911483 0.516532 -0.159305
C71   C     C_R   0.483461 0.088514 0.498439 -0.159307
C72   C     C_R   0.456960 0.438478 0.071473 -0.187713
C73   C     C_R   0.561523 0.543042 0.928524 -0.187710
C74   C     C_R   0.911487 0.516540 0.501558 -0.159308
C75   C     C_R   0.088519 0.498428 0.483470 -0.159306
C76   C     C_R   0.542565 0.052391 0.676778 -0.055268
C77   C     C_R   0.445304 0.971362 0.322042 -0.064727
C78   C     C_R   0.052394 0.676778 0.542564 -0.055269
C79   C     C_R   0.965484 0.413751 0.406343 -0.037748
C80   C     C_R   0.971365 0.322042 0.445303 -0.064727
C81   C     C_R   0.676778 0.542565 0.052390 -0.055269
C82   C     C_R   0.322043 0.445307 0.971358 -0.064725
C83   C     C_R   0.323222 0.947607 0.457436 -0.055270
C84   C     C_R   0.677958 0.028637 0.554696 -0.064727
C85   C     C_R   0.457435 0.323222 0.947610 -0.055270
C86   C     C_R   0.554695 0.677958 0.028638 -0.064726
C87   C     C_R   0.947610 0.457435 0.323221 -0.055268
C88   C     C_R   0.028640 0.554694 0.677957 -0.064727
C89   C     C_R   0.592336 0.057847 0.723245 -0.157060
C90   C     C_R   0.593656 0.586249 0.034517 -0.037748
C91   C     C_R   0.402014 0.954418 0.276115 -0.161344
C92   C     C_R   0.057849 0.723245 0.592336 -0.157060
C93   C     C_R   0.954420 0.276115 0.402014 -0.161342
C94   C     C_R   0.723245 0.592337 0.057846 -0.157059
C95   C     C_R   0.276116 0.402016 0.954416 -0.161344
C96   C     C_R   0.276755 0.942152 0.407664 -0.157060
C97   C     C_R   0.723885 0.045581 0.597985 -0.161343
C98   C     C_R   0.407663 0.276755 0.942153 -0.157059
C99   C     C_R   0.597985 0.723885 0.045582 -0.161343
C100  C     C_R   0.942153 0.407664 0.276755 -0.157059
C101  C     C_R   0.413752 0.406346 0.965480 -0.037748
C102  C     C_R   0.045583 0.597985 0.723884 -0.161344
C103  C     C_R   0.676836 0.069752 0.677330 -0.098270
C104  C     C_R   0.322670 0.930248 0.323164 -0.098268
C105  C     C_R   0.069753 0.677330 0.676836 -0.098267
C106  C     C_R   0.930249 0.323164 0.322670 -0.098270
C107  C     C_R   0.677330 0.676836 0.069751 -0.098269
C108  C     C_R   0.323164 0.322670 0.930248 -0.098269
C109  C     C_R   0.443838 0.073431 0.709529 0.160818
C110  C     C_R   0.390980 0.162486 0.684349 -0.168719
C111  C     C_R   0.297802 0.182031 0.708564 -0.118476
C112  C     C_R   0.969361 0.178493 0.434692 0.886603
C113  C     C_R   0.257275 0.113260 0.760801 -0.137399
C114  C     C_R   0.309692 0.025043 0.786827 -0.137374
C115  C     C_R   0.402969 0.004429 0.758977 -0.058296
C116  C     C_R   0.533555 0.989780 0.277436 0.176419
C117  C     C_R   0.539344 0.077066 0.252318 -0.126710
C118  C     C_R   0.622135 0.094623 0.206154 -0.148901
C119  C     C_R   0.698068 0.026906 0.178956 -0.118051
C120  C     C_R   0.692132 0.940577 0.202040 -0.128782
C121  C     C_R   0.611180 0.920805 0.254580 -0.097644
C122  C     C_R   0.073435 0.709528 0.443838 0.160818
C123  C     C_R   0.037234 0.821348 0.562303 0.883396
C124  C     C_R   0.162489 0.684346 0.390980 -0.168713
C125  C     C_R   0.182035 0.708559 0.297802 -0.118477
C126  C     C_R   0.113264 0.760795 0.257275 -0.137399
C127  C     C_R   0.025047 0.786823 0.309691 -0.137374
C128  C     C_R   0.004433 0.758975 0.402967 -0.058299
C129  C     C_R   0.989783 0.277434 0.533554 0.176424
C130  C     C_R   0.077072 0.252305 0.539341 -0.126707
C131  C     C_R   0.094629 0.206137 0.622132 -0.148903
C132  C     C_R   0.026909 0.178945 0.698066 -0.118043
C133  C     C_R   0.940577 0.202040 0.692132 -0.128780
C134  C     C_R   0.178493 0.434693 0.969359 0.886601
C135  C     C_R   0.920806 0.254584 0.611180 -0.097646
C136  C     C_R   0.709530 0.443839 0.073429 0.160818
C137  C     C_R   0.684351 0.390980 0.162483 -0.168715
C138  C     C_R   0.708568 0.297802 0.182029 -0.118477
C139  C     C_R   0.760805 0.257276 0.113257 -0.137398
C140  C     C_R   0.786828 0.309694 0.025040 -0.137369
C141  C     C_R   0.758977 0.402970 0.004426 -0.058298
C142  C     C_R   0.277437 0.533559 0.989773 0.176415
C143  C     C_R   0.252313 0.539350 0.077059 -0.126699
C144  C     C_R   0.206142 0.622143 0.094614 -0.148892
H1    H     H_    0.476467 0.157236 0.490465 0.121406
H2    H     H_    0.490459 0.476473 0.157236 0.121405
H3    H     H_    0.127382 0.418667 0.396054 0.116905
H4    H     H_    0.872626 0.603963 0.581312 0.116906
H5    H     H_    0.422138 0.216077 0.644088 0.114666
H6    H     H_    0.257209 0.250330 0.687145 0.125158
H7    H     H_    0.185368 0.127318 0.780279 0.102867
H8    H     H_    0.277579 0.972803 0.827123 0.115473
H9    H     H_    0.443654 0.935461 0.776612 0.120366
H10   H     H_    0.479824 0.131596 0.267166 0.105322
H11   H     H_    0.626496 0.161564 0.188658 0.125722
H12   H     H_    0.509549 0.842761 0.523521 0.121404
H13   H     H_    0.761558 0.041145 0.139535 0.097287
H14   H     H_    0.749521 0.889654 0.177262 0.130000
H15   H     H_    0.607262 0.853566 0.271996 0.110470
H16   H     H_    0.216080 0.644085 0.422138 0.114666
H17   H     H_    0.250334 0.687139 0.257209 0.125156
H18   H     H_    0.127322 0.780271 0.185368 0.102866
H19   H     H_    0.972808 0.827118 0.277578 0.115474
H20   H     H_    0.935465 0.776611 0.443652 0.120366
H21   H     H_    0.131604 0.267147 0.479820 0.105316
H22   H     H_    0.161573 0.188633 0.626492 0.125719
H23   H     H_    0.157240 0.490447 0.476483 0.121404
H24   H     H_    0.041147 0.139521 0.761557 0.097283
H25   H     H_    0.889651 0.177267 0.749522 0.129998
H26   H     H_    0.853565 0.272007 0.607263 0.110466
H27   H     H_    0.644091 0.422137 0.216075 0.114666
H28   H     H_    0.687152 0.257208 0.250327 0.125156
H29   H     H_    0.780285 0.185369 0.127314 0.102863
H30   H     H_    0.827124 0.277581 0.972800 0.115475
H31   H     H_    0.776610 0.443656 0.935458 0.120365
H32   H     H_    0.267162 0.479832 0.131592 0.105319
H33   H     H_    0.188642 0.626505 0.161556 0.125715
H34   H     H_    0.842766 0.523536 0.509531 0.121407
H35   H     H_    0.139515 0.761564 0.041132 0.097284
H36   H     H_    0.177247 0.749521 0.889640 0.130012
H37   H     H_    0.271996 0.607263 0.853556 0.110470
H38   H     H_    0.355917 0.783920 0.577861 0.114666
H39   H     H_    0.312863 0.749666 0.742790 0.125158
H40   H     H_    0.219731 0.872677 0.814632 0.102869
H41   H     H_    0.172881 0.027192 0.722423 0.115474
H42   H     H_    0.223387 0.064535 0.556348 0.120367
H43   H     H_    0.732848 0.868400 0.520176 0.105316
H44   H     H_    0.811368 0.838432 0.373505 0.125716
H45   H     H_    0.603954 0.581324 0.872620 0.116906
H46   H     H_    0.860487 0.958856 0.238443 0.097282
H47   H     H_    0.822742 0.110352 0.250480 0.130001
H48   H     H_    0.727996 0.146438 0.392738 0.110467
H49   H     H_    0.577867 0.355908 0.783926 0.114665
H50   H     H_    0.742796 0.312844 0.749678 0.125156
H51   H     H_    0.814631 0.219710 0.872694 0.102863
H52   H     H_    0.722414 0.172874 0.027208 0.115477
H53   H     H_    0.556340 0.223390 0.064545 0.120366
H54   H     H_    0.520174 0.732844 0.868402 0.105319
H55   H     H_    0.373502 0.811360 0.838436 0.125718
H56   H     H_    0.418678 0.396045 0.127377 0.116906
H57   H     H_    0.238440 0.860479 0.958860 0.097285
H58   H     H_    0.250479 0.822742 0.110353 0.130006
H59   H     H_    0.392738 0.727999 0.146439 0.110469
H60   H     H_    0.783924 0.577863 0.355908 0.114666
H61   H     H_    0.749672 0.742792 0.312848 0.125159
H62   H     H_    0.872686 0.814631 0.219716 0.102866
H63   H     H_    0.027200 0.722419 0.172877 0.115474
H64   H     H_    0.064541 0.556345 0.223390 0.120364
H65   H     H_    0.868405 0.520174 0.732837 0.105321
H66   H     H_    0.838437 0.373502 0.811354 0.125717
H67   H     H_    0.396038 0.127377 0.418685 0.116905
H68   H     H_    0.958859 0.238440 0.860477 0.097284
H69   H     H_    0.110352 0.250479 0.822743 0.130004
H70   H     H_    0.146439 0.392737 0.728002 0.110468
H71   H     H_    0.581329 0.872620 0.603948 0.116905
H72   H     H_    0.523526 0.509544 0.842760 0.121404
N1    N     N_1   0.742789 0.140544 0.737560 -0.219393
N2    N     N_1   0.262439 0.859456 0.257211 -0.219394
N3    N     N_1   0.140544 0.737561 0.742789 -0.219398
N4    N     N_1   0.859455 0.257211 0.262440 -0.219395
N5    N     N_1   0.737561 0.742788 0.140544 -0.219394
N6    N     N_1   0.257211 0.262438 0.859457 -0.219395
O1    O     O_R   0.982940 0.138950 0.510160 -0.621182
O2    O     O_R   0.982940 0.510160 0.138950 -0.626978
O3    O     O_R   0.861050 0.017060 0.489840 -0.621181
O4    O     O_R   0.138950 0.982940 0.510160 -0.626982
O5    O     O_R   0.867700 0.025880 0.612340 -0.615426
O6    O     O_R   0.132300 0.974120 0.387660 -0.613922
O7    O     O_R   0.025880 0.612340 0.867700 -0.615428
O8    O     O_R   0.974120 0.387660 0.132300 -0.613921
O9    O     O_R   0.612340 0.867700 0.025880 -0.615427
O10   O     O_R   0.387660 0.132300 0.974120 -0.613922
O11   O     O_R   0.387660 0.974120 0.132300 -0.615427
O12   O     O_R   0.017060 0.861050 0.489840 -0.626981
O13   O     O_R   0.612340 0.025880 0.867700 -0.613921
O14   O     O_R   0.132300 0.387660 0.974120 -0.615427
O15   O     O_R   0.867700 0.612340 0.025880 -0.613921
O16   O     O_R   0.974120 0.132300 0.387660 -0.615427
O17   O     O_R   0.025880 0.867700 0.612340 -0.613922
O18   O     O_R   0.138950 0.510160 0.982940 -0.621182
O19   O     O_R   0.861050 0.489840 0.017060 -0.626979
O20   O     O_R   0.510160 0.982940 0.138950 -0.621185
O21   O     O_R   0.489840 0.017060 0.861050 -0.626980
O22   O     O_R   0.489840 0.861050 0.017060 -0.621183
O23   O     O_R   0.510160 0.138950 0.982940 -0.626980
O24   O     O_R   0.017060 0.489840 0.861050 -0.621183
Zn1   Zn    Zn3+2 0.004880 0.004880 0.583590 0.989861
Zn2   Zn    Zn3+2 0.995120 0.995120 0.416410 0.989861
Zn3   Zn    Zn3+2 0.004880 0.583590 0.004880 0.989861
Zn4   Zn    Zn3+2 0.995120 0.416410 0.995120 0.989861
Zn5   Zn    Zn3+2 0.583590 0.004880 0.004880 0.989861
Zn6   Zn    Zn3+2 0.416410 0.995120 0.995120 0.989861

loop_
_geom_bond_atom_site_label_1
_geom_bond_atom_site_label_2
_ccdc_geom_bond_type
C50   N5    T    
C126  C127  A    
C81   C94   A    
C11   H42   S    
C45   N1    T    
C41   C42   A    
C113  H7    S    
C19   C20   A    
O13   Zn5   S    
C91   C104  A    
C82   C142  S    
C110  H5    S    
O9    Zn5   S    
C24   C89   S    
C28   C29   A    
C79   C87   A    
C114  C115  A    
C5    C142  A    
C85   C101  A    
O4    Zn1   S    
C60   C79   S    
C4    C5    A    
C17   H47   S    
C53   O2    A    
C27   H54   S    
C18   H48   S    
C26   C27   A    
C37   C38   A    
C38   H64   S    
C24   O21   A    
C44   H70   S    
C84   C97   A    
C143  H32   S    
C55   O4    A    
C36   C37   A    
C1    C56   S    
C129  C130  A    
C30   C31   A    
C93   C106  A    
C52   O7    A    
C135  H26   S    
C83   C96   A    
C51   N6    T    
C143  C144  A    
C80   C129  S    
C128  H20   S    
C10   H41   S    
C98   C108  A    
C116  C117  A    
C12   C84   S    
C102  C105  A    
O17   Zn1   S    
C67   C72   A    
C64   C71   A    
C133  H25   S    
C110  C111  A    
C3    H35   S    
C85   C98   A    
C45   C103  S    
O12   Zn2   S    
C129  C135  A    
C82   C101  A    
C142  C143  A    
C13   O20   A    
C131  H22   S    
C8    C9    A    
C23   H52   S    
C15   H44   S    
C57   C83   A    
C54   C97   S    
C69   C73   A    
O10   Zn6   S    
C32   C38   A    
C21   H50   S    
C77   C116  S    
C9    C10   A    
C31   H59   S    
C26   C86   S    
C53   O8    A    
C62   C101  S    
O3    Zn2   S    
C125  C126  A    
C46   C98   S    
C60   C66   A    
O18   Zn3   S    
C53   C100  S    
C21   C22   A    
C89   C103  A    
C120  H14   S    
C37   H63   S    
O15   Zn3   S    
C113  C114  A    
C69   H72   S    
C46   O10   A    
C39   C88   S    
C4    H36   S    
C35   C99   S    
C117  C118  A    
C5    H37   S    
C118  C119  A    
C17   C18   A    
C6    C7    A    
C123  O17   A    
C34   H61   S    
C68   C78   A    
C30   H58   S    
C47   N2    T    
C125  H17   S    
C94   C107  A    
C28   H55   S    
C29   H57   S    
C116  C121  A    
O19   Zn4   S    
C49   N4    T    
C138  H28   S    
C57   C77   A    
C2    C94   S    
C140  C141  A    
C111  C113  A    
C7    C8    A    
C10   C11   A    
C92   C123  S    
C6    C11   A    
C115  H9    S    
C76   C109  S    
C93   C112  S    
C58   C64   A    
O1    Zn1   S    
C32   C87   S    
C35   O22   A    
C40   H65   S    
C95   C134  S    
C65   C74   A    
C62   C69   A    
C1    C84   A    
C55   O6    A    
C43   C44   A    
C54   O3    A    
C29   C30   A    
C95   C108  A    
C59   C68   S    
C72   H56   S    
C123  O12   A    
C61   C67   A    
C141  H31   S    
C48   C105  S    
C74   H34   S    
C63   C70   A    
O20   Zn5   S    
C119  H13   S    
C56   C71   A    
C52   C102  S    
C67   H2    S    
C33   C34   A    
C120  C121  A    
C56   C63   A    
C62   C72   A    
C118  H11   S    
C64   H67   S    
C36   H62   S    
C144  H33   S    
C65   H4    S    
C86   C99   A    
C66   H3    S    
C97   C103  A    
C16   H46   S    
O2    Zn3   S    
C81   C90   A    
C47   C104  S    
C8    H39   S    
C40   C41   A    
C71   H1    S    
C13   C91   S    
C12   C14   A    
C51   C108  S    
C112  O16   A    
C96   C104  A    
C86   C90   A    
C50   C107  S    
C68   C88   A    
C112  O1    A    
C70   H12   S    
C22   H51   S    
C139  H29   S    
C42   C43   A    
C41   H66   S    
C39   C44   A    
C122  C124  A    
C127  C128  A    
C43   H69   S    
C111  H6    S    
C59   C75   A    
C20   H49   S    
C39   C40   A    
C42   H68   S    
C61   C90   S    
C81   C136  S    
C13   O11   A    
C87   C100  A    
O24   Zn4   S    
C77   C91   A    
C127  H19   S    
C6    C83   S    
O22   Zn6   S    
C7    H38   S    
C61   C73   A    
C22   C23   A    
C1    C76   A    
C134  O18   A    
C58   C70   A    
C3    C144  A    
C132  H24   S    
C46   O23   A    
O14   Zn4   S    
C55   C96   S    
C19   C85   S    
C52   O24   A    
C15   C16   A    
C88   C102  A    
C139  C140  A    
C2    O15   A    
C49   C106  S    
O6    Zn2   S    
C82   C95   A    
C99   C107  A    
C137  C138  A    
C76   C89   A    
C33   H60   S    
C100  C106  A    
C78   C92   A    
C32   C33   A    
C130  C131  A    
C24   O13   A    
O8    Zn4   S    
C109  C110  A    
C59   C65   A    
C14   H43   S    
C130  H21   S    
C57   C58   S    
C16   C17   A    
O21   Zn6   S    
C66   C75   A    
C124  H16   S    
C60   C74   A    
C136  C141  A    
C132  C133  A    
C35   O9    A    
C23   C25   A    
C122  C128  A    
C131  C132  A    
C78   C122  S    
C2    O19   A    
C73   H45   S    
C54   O5    A    
C137  H27   S    
C25   H53   S    
C138  C139  A    
C109  C115  A    
C19   C25   A    
O5    Zn1   S    
C79   C80   A    
C92   C105  A    
C26   C31   A    
O23   Zn5   S    
C20   C21   A    
C34   C36   A    
C140  H30   S    
C119  C120  A    
C121  H15   S    
C12   C18   A    
C117  H10   S    
C9    H40   S    
C133  C135  A    
C134  O14   A    
C14   C15   A    
C136  C137  A    
C75   H23   S    
C63   H71   S    
C80   C93   A    
C126  H18   S    
O7    Zn3   S    
C114  H8    S    
C3    C4    A    
O11   Zn6   S    
C124  C125  A    
C27   C28   A    
C48   N3    T    
O16   Zn2   S    
