data_str_m2_o10_o28_f0_pcu.sym.135
_audit_creation_date              2012-12-10T16:50:08-0500
_audit_creation_method            fapswitch 2.2
_symmetry_space_group_name_H-M    P1
_symmetry_Int_Tables_number       1
_space_group_crystal_system       triclinic
_cell_length_a                    23.464146
_cell_length_b                    8.684653
_cell_length_c                    7.428918
_cell_angle_alpha                 103.059476
_cell_angle_beta                  93.734209
_cell_angle_gamma                 92.229967
_cell_volume                      1469.32366328

loop_
_atom_site_label
_atom_site_type_symbol
_atom_type_description
_atom_site_fract_x
_atom_site_fract_y
_atom_site_fract_z
_atom_type_partial_charge
C1    C     C_R   0.498296 0.199628 0.453169 0.876742
C2    C     C_R   0.501705 0.800372 0.546831 0.876568
C3    C     C_R   0.238997 0.590350 0.418182 -0.109489
C4    C     C_R   0.761015 0.409723 0.581407 -0.109419
C5    C     C_R   0.297941 0.587433 0.414119 -0.159197
C6    C     C_R   0.702066 0.412422 0.585372 -0.159548
C7    C     C_R   0.328808 0.491960 0.509411 -0.159912
C8    C     C_R   0.671187 0.508255 0.490630 -0.159875
C9    C     C_R   0.299969 0.394946 0.608676 -0.132236
C10   C     C_R   0.700010 0.605904 0.392062 -0.132187
C11   C     C_R   0.239620 0.395439 0.607642 0.442540
C12   C     C_R   0.760370 0.605542 0.393136 0.442961
C13   C     C_R   0.209587 0.494979 0.513737 0.221988
C14   C     C_R   0.790410 0.505623 0.486459 0.222020
C15   C     C_2   0.497507 0.031727 0.426784 -0.361769
C16   C     C_2   0.502495 0.968273 0.573216 -0.361870
C17   C     C_R   0.391144 0.496776 0.502833 0.794665
C18   C     C_R   0.608853 0.503248 0.497173 0.794603
C19   C     C_R   0.883514 0.565151 0.653690 0.574891
C20   C     C_R   0.116477 0.435511 0.346506 0.574693
C21   C     C_R   0.876757 0.439450 0.330971 0.624461
C22   C     C_R   0.123238 0.561385 0.669173 0.624484
C23   C     C_R   0.936488 0.438330 0.331113 -0.026172
C24   C     C_R   0.063505 0.562494 0.669036 -0.026163
C25   C     C_R   0.969919 0.500844 0.498136 -0.010561
C26   C     C_R   0.030075 0.499947 0.502025 -0.010592
C27   C     C_R   0.943340 0.564093 0.661330 -0.032203
C28   C     C_R   0.056652 0.436655 0.338844 -0.032212
C29   C     C_R   0.963445 0.376417 0.168921 -0.151911
C30   C     C_R   0.036550 0.624416 0.831227 -0.151867
C31   C     C_R   0.022935 0.375663 0.172726 -0.159022
C32   C     C_R   0.977058 0.625111 0.827440 -0.159058
Cu1   Cu    Cu3+1 0.506340 0.517380 0.684380 0.979698
Cu2   Cu    Cu3+1 0.493660 0.482620 0.315620 0.979842
H1    H     H_    0.938711 0.328680 0.038534 0.195788
H2    H     H_    0.061284 0.672176 0.961607 0.195770
H3    H     H_    0.042366 0.327221 0.045192 0.203691
H4    H     H_    0.957627 0.673532 0.954980 0.203668
H5    H     H_    0.215825 0.666163 0.345271 0.186094
H6    H     H_    0.784202 0.333643 0.653894 0.186021
H7    H     H_    0.319767 0.662070 0.338453 0.173311
H8    H     H_    0.680246 0.337361 0.660545 0.173169
H9    H     H_    0.492837 0.959993 0.285703 0.185457
H10   H     H_    0.507166 0.040007 0.714297 0.185460
H11   H     H_    0.455039 0.379519 0.948900 0.233259
H12   H     H_    0.544962 0.620479 0.051100 0.233140
N1    N     N_R   0.851612 0.503919 0.490152 -0.457594
N2    N     N_R   0.148383 0.496786 0.510030 -0.457588
N3    N     N_2   0.484110 0.456420 0.038520 -0.209947
N4    N     N_2   0.515890 0.543580 0.961480 -0.210052
O1    O     O_R   0.504120 0.286130 0.619770 -0.592684
O2    O     O_R   0.495880 0.713870 0.380230 -0.592704
O3    O     O_R   0.493410 0.256770 0.308360 -0.575721
O4    O     O_R   0.506590 0.743230 0.691640 -0.575749
O5    O     O_R   0.423230 0.514630 0.655730 -0.594181
O6    O     O_R   0.576770 0.485370 0.344270 -0.594146
O7    O     O_R   0.412530 0.485280 0.344320 -0.554685
O8    O     O_R   0.587470 0.514720 0.655680 -0.554936
O9    O     O_2   0.857362 0.627728 0.807988 -0.463115
O10   O     O_2   0.142621 0.372796 0.192240 -0.462987
O11   O     O_2   0.843980 0.376403 0.173411 -0.489814
O12   O     O_2   0.156014 0.624566 0.826693 -0.489889
C33   C     C_2   0.332823 0.288743 0.703313 0.460173
H13   H     H_    0.372363 0.242974 0.650672 0.032379
O13   O     O_2   0.317198 0.254580 0.843609 -0.469383
C34   C     C_2   0.667114 0.712580 0.298196 0.459450
H14   H     H_    0.627354 0.757128 0.350262 0.032614
O14   O     O_2   0.682962 0.748586 0.159167 -0.469032
Cl1   Cl    Cl    0.200080 0.263182 0.708179 -0.475176
Cl2   Cl    Cl    0.799935 0.738287 0.293355 -0.474958

loop_
_geom_bond_atom_site_label_1
_geom_bond_atom_site_label_2
_ccdc_geom_bond_type
C22   O12   S    
Cu1   O5    S    
C13   N2    S    
C34   O14   D    
C30   H2    S    
C33   O13   D    
Cu2   O6    S    
Cu1   O8    S    
C1    C15   S    
C32   H4    S    
Cu1   O1    S    
C19   C27   A    
C6    H8    S    
C29   H1    S    
C21   O11   S    
C3    C13   A    
H11   N3    S    
C4    H6    S    
C5    H7    S    
C7    C9    A    
C11   Cl1   S    
C34   H14   S    
C25   C26   A    
C15   H9    S    
C29   C31   A    
Cu1   N4    S    
C21   N1    A    
C30   C32   A    
C18   O6    A    
C9    C11   A    
C20   N2    A    
C2    O2    A    
Cu2   O7    S    
C10   C12   A    
C8    C10   A    
C26   C28   A    
C24   C26   A    
H12   N4    S    
Cu1   Cu2   S    
C24   C30   A    
C12   Cl2   S    
C10   C34   S    
C21   C23   A    
C4    C14   A    
C22   C24   A    
C20   O10   S    
C1    O3    A    
C25   C27   A    
C3    H5    S    
C15   C16   D    
C12   C14   A    
C23   C29   A    
C22   N2    A    
C11   C13   A    
C23   C25   A    
C2    C16   S    
Cu2   O3    S    
C4    C6    A    
N3    N4    D    
C2    O4    A    
C19   N1    A    
C17   O7    A    
Cu1   O4    S    
C5    C7    A    
C17   O5    A    
Cu2   N3    S    
C6    C8    A    
C1    O1    A    
C20   C28   A    
C19   O9    S    
C27   C32   A    
C9    C33   S    
C14   N1    S    
Cu2   O2    S    
C16   H10   S    
C28   C31   A    
C8    C18   S    
C33   H13   S    
C31   H3    S    
C18   O8    A    
C3    C5    A    
C7    C17   S    
