data_str_m2_o10_o14_f0_pcu.sym.80
_audit_creation_date              2012-12-10T16:43:26-0500
_audit_creation_method            fapswitch 2.2
_symmetry_space_group_name_H-M    P1
_symmetry_Int_Tables_number       1
_space_group_crystal_system       triclinic
_cell_length_a                    10.744669
_cell_length_b                    8.675737
_cell_length_c                    7.441033
_cell_angle_alpha                 103.216579
_cell_angle_beta                  93.111387
_cell_angle_gamma                 91.712061
_cell_volume                      673.631432192

loop_
_atom_site_label
_atom_site_type_symbol
_atom_type_description
_atom_site_fract_x
_atom_site_fract_y
_atom_site_fract_z
_atom_type_partial_charge
C1    C     C_R   0.496721 0.199698 0.453080 0.872866
C2    C     C_R   0.505803 0.800312 0.546564 0.909698
C3    C     C_R   0.737027 0.496976 0.495066 0.763482
C4    C     C_R   0.124615 0.813347 0.666753 0.334574
C5    C     C_R   0.058370 0.952090 0.687511 -0.142434
C6    C     C_R   0.932269 0.945444 0.634443 -0.209076
C7    C     C_R   0.869671 0.799413 0.568974 -0.169585
C8    C     C_R   0.934586 0.657531 0.543640 0.061146
C9    C     C_R   0.065885 0.663725 0.577370 0.019323
C10   C     C_R   0.129258 0.519716 0.520163 -0.072469
C11   C     C_R   0.062375 0.375395 0.452808 -0.195219
C12   C     C_R   0.933663 0.369444 0.441960 -0.201800
C13   C     C_R   0.870284 0.509052 0.487332 -0.051739
C14   C     C_2   0.495701 0.031641 0.426653 -0.366840
C15   C     C_2   0.509199 0.968422 0.572595 -0.334791
C16   C     C_R   0.263232 0.513593 0.507000 0.848638
Cl1   Cl    Cl    0.267004 0.835633 0.797299 -0.646031
Cu1   Cu    Cu3+1 0.513920 0.517380 0.684380 0.998985
Cu2   Cu    Cu3+1 0.486080 0.482620 0.315620 0.982464
H1    H     H_    0.110504 0.266097 0.410293 0.148636
H2    H     H_    0.597221 0.620602 0.050867 0.227129
H3    H     H_    0.103657 0.065793 0.753212 0.169772
H4    H     H_    0.881560 0.053377 0.652611 0.155974
H5    H     H_    0.770338 0.798491 0.536292 0.124239
H6    H     H_    0.883207 0.255724 0.398047 0.137612
H7    H     H_    0.483318 0.959636 0.286075 0.200532
H8    H     H_    0.521663 0.040415 0.713157 0.194695
H9    H     H_    0.402730 0.379463 0.949142 0.236051
N1    N     N_2   0.465100 0.456430 0.038520 -0.203158
N2    N     N_2   0.534900 0.543570 0.961480 -0.198385
O1    O     O_R   0.509050 0.286130 0.619770 -0.592151
O2    O     O_R   0.485540 0.256780 0.308360 -0.576671
O3    O     O_R   0.331410 0.514680 0.655740 -0.543344
O4    O     O_R   0.307900 0.485330 0.344330 -0.574591
O5    O     O_R   0.514460 0.743220 0.691640 -0.540689
O6    O     O_R   0.490950 0.713870 0.380230 -0.591491
O7    O     O_R   0.692100 0.514670 0.655670 -0.579972
O8    O     O_R   0.668590 0.485320 0.344260 -0.595378

loop_
_geom_bond_atom_site_label_1
_geom_bond_atom_site_label_2
_ccdc_geom_bond_type
C2    O5    A    
C11   C12   A    
C6    C7    A    
Cu1   N2    S    
Cu2   O8    S    
C16   O3    A    
H2    N2    S    
C15   H8    S    
C3    C13   S    
C12   H6    S    
C7    C8    A    
C10   C16   S    
C14   H7    S    
C2    C15   S    
N1    N2    D    
C6    H4    S    
C9    C10   A    
H9    N1    S    
Cu1   O1    S    
Cu1   O7    S    
Cu2   O6    S    
C5    C6    A    
Cu1   O3    S    
C11   H1    S    
C10   C11   A    
Cu2   O2    S    
C7    H5    S    
Cu2   N1    S    
C8    C13   A    
C1    O1    A    
C12   C13   A    
C3    O7    A    
Cu1   Cu2   S    
Cu1   O5    S    
C2    O6    A    
C14   C15   D    
C8    C9    A    
C1    C14   S    
C16   O4    A    
C4    C9    A    
C1    O2    A    
C5    H3    S    
C3    O8    A    
C4    C5    A    
Cu2   O4    S    
C4    Cl1   S    
