data_str_m3_o10_o16_f0_pcu.sym.10
_audit_creation_date              2012-12-10T16:51:27-0500
_audit_creation_method            fapswitch 2.2
_symmetry_space_group_name_H-M    P1
_symmetry_Int_Tables_number       1
_space_group_crystal_system       triclinic
_cell_length_a                    7.911567
_cell_length_b                    8.558119
_cell_length_c                    12.043164
_cell_angle_alpha                 93.972984
_cell_angle_beta                  101.687124
_cell_angle_gamma                 93.567589
_cell_volume                      794.165292363

loop_
_atom_site_label
_atom_site_type_symbol
_atom_type_description
_atom_site_fract_x
_atom_site_fract_y
_atom_site_fract_z
_atom_type_partial_charge
C1    C     C_R   0.043889 0.794227 0.497568 0.986967
C2    C     C_R   0.155966 0.500150 0.833321 -0.115781
C3    C     C_2   0.067133 0.957799 0.496728 -0.377990
C4    C     C_R   0.105543 0.502917 0.710402 0.870496
C5    C     C_2   0.933567 0.042403 0.504974 -0.367692
C6    C     C_R   0.956249 0.205812 0.502836 0.914594
C7    C     C_R   0.891708 0.486741 0.289293 0.829130
C8    C     C_R   0.793209 0.267090 0.001919 -0.188322
C9    C     C_R   0.825656 0.450317 0.168285 -0.057765
C10   C     C_R   0.074248 0.594766 0.903091 -0.147886
C11   C     C_R   0.144768 0.622278 0.018604 -0.139397
C12   C     C_R   0.387929 0.471910 0.992857 0.085496
C13   C     C_R   0.303210 0.565543 0.063155 -0.202825
C14   C     C_R   0.299866 0.421220 0.881623 0.098523
C15   C     C_R   0.558481 0.429439 0.028318 0.092501
C16   C     C_R   0.624800 0.312014 0.963678 0.169849
C17   C     C_R   0.521442 0.241646 0.862497 -0.182771
C18   C     C_R   0.361169 0.297449 0.820651 -0.139718
C19   C     C_R   0.666739 0.505371 0.124733 -0.257182
C20   C     C_R   0.892304 0.333724 0.105763 -0.184912
H1    H     H_    0.015687 0.288959 0.139661 0.153812
H2    H     H_    0.286960 0.245275 0.739575 0.152619
H3    H     H_    0.193566 0.008000 0.489006 0.190823
H4    H     H_    0.737879 0.831935 0.763199 0.341003
H5    H     H_    0.807222 0.992227 0.512890 0.208972
H6    H     H_    0.464068 0.387672 0.404929 0.137832
H7    H     H_    0.567704 0.148980 0.813165 0.155143
H8    H     H_    0.845045 0.176614 0.953995 0.135106
H9    H     H_    0.626280 0.603657 0.171464 0.145832
H10   H     H_    0.959467 0.651782 0.867809 0.190313
H11   H     H_    0.354804 0.593145 0.152963 0.137790
H12   H     H_    0.080843 0.693916 0.072670 0.144624
N1    N     N_2   0.434800 0.456690 0.470850 -0.143049
N2    N     N_2   0.565200 0.543310 0.529150 0.116078
O1    O     O_R   0.893060 0.738880 0.507150 -0.571516
O2    O     O_2   0.567383 0.543546 0.748706 -0.313822
O3    O     O_3   0.745281 0.773184 0.690724 -0.549074
O4    O     O_R   0.172250 0.711130 0.488470 -0.574040
O5    O     O_R   0.944700 0.520730 0.667600 -0.562189
O6    O     O_R   0.223890 0.492980 0.648920 -0.532089
O7    O     O_R   0.827750 0.288870 0.511530 -0.631959
O8    O     O_R   0.106940 0.261120 0.492850 -0.630019
O9    O     O_R   0.776110 0.507020 0.351080 -0.642437
O10   O     O_R   0.055300 0.479270 0.332400 -0.633791
O11   O     O_2   0.415283 0.752700 0.651173 -0.304686
S1    S     S_3+6 0.563882 0.651926 0.655994 0.138256
Zn1   Zn    Zn3+2 0.813580 0.518530 0.512470 1.043197
Zn2   Zn    Zn3+2 0.186420 0.481470 0.487530 1.011959

loop_
_geom_bond_atom_site_label_1
_geom_bond_atom_site_label_2
_ccdc_geom_bond_type
C2    C4    S    
C4    O5    A    
O2    S1    D    
N2    S1    S    
C7    O9    A    
C10   H10   S    
C9    C20   A    
C3    H3    S    
C12   C15   A    
O1    Zn1   S    
C17   C18   A    
O7    Zn1   S    
C8    C16   A    
O10   Zn2   S    
O8    Zn2   S    
C7    O10   A    
C12   C13   A    
C15   C19   A    
C13   H11   S    
C11   C13   A    
C8    C20   A    
O9    Zn1   S    
C1    O4    A    
C5    H5    S    
C12   C14   A    
C11   H12   S    
H4    O3    S    
C5    C6    S    
C2    C14   A    
C10   C11   A    
C15   C16   A    
C17   H7    S    
O11   S1    D    
N1    N2    D    
C20   H1    S    
C1    O1    A    
C8    H8    S    
O5    Zn1   S    
C6    O8    A    
C7    C9    S    
N1    Zn2   S    
O6    Zn2   S    
N2    Zn1   S    
H6    N1    S    
C3    C5    D    
O3    S1    S    
C18   H2    S    
O4    Zn2   S    
C14   C18   A    
C9    C19   A    
C2    C10   A    
C4    O6    A    
C16   C17   A    
C1    C3    S    
C6    O7    A    
C19   H9    S    
