data_str_m12_o4_o9_f0_bcu.sym.74
_audit_creation_date              2013-03-05T15:55:05-0500
_audit_creation_method            fapswitch 2.2
_symmetry_space_group_name_H-M    P1
_symmetry_Int_Tables_number       1
_space_group_crystal_system       triclinic
_cell_length_a                    14.822787
_cell_length_b                    15.040785
_cell_length_c                    14.889221
_cell_angle_alpha                 109.831864
_cell_angle_beta                  109.651493
_cell_angle_gamma                 109.249839
_cell_volume                      2545.17203213

loop_
_atom_site_label
_atom_site_type_symbol
_atom_site_description
_atom_site_fract_x
_atom_site_fract_y
_atom_site_fract_z
_atom_type_partial_charge
C1    C     C_R   0.185631 0.278086 0.255483 -0.133770
H1    H     H_    0.121461 0.299028 0.246943 0.109477
N1    N     N_R   0.291070 0.347930 0.293870 -0.044334
C2    C     C_R   0.525794 0.434001 0.747283 -0.132902
H2    H     H_    0.552970 0.376636 0.750449 0.109240
N2    N     N_R   0.554050 0.497220 0.706150 -0.041219
C3    C     C_R   0.503139 0.199544 0.410152 -0.073350
H3    H     H_    0.476083 0.143198 0.325940 0.092150
N3    N     N_R   0.497240 0.291100 0.443210 -0.042711
C4    C     C_R   0.290281 0.596868 0.588917 -0.131371
H4    H     H_    0.323055 0.657450 0.673315 0.086546
N4    N     N_R   0.347890 0.554050 0.556810 -0.039175
C5    C     C_R   0.595449 0.294210 0.593886 -0.163423
H5    H     H_    0.656195 0.327387 0.678949 0.092569
N5    N     N_R   0.554050 0.347900 0.556830 -0.036445
C6    C     C_R   0.199496 0.503268 0.406199 -0.134837
H6    H     H_    0.150015 0.475388 0.320453 0.127406
N6    N     N_R   0.291070 0.497250 0.443190 -0.039939
C7    C     C_R   0.435860 0.527780 0.751580 -0.121993
H7    H     H_    0.382428 0.559509 0.762679 0.095015
N7    N     N_R   0.497240 0.554030 0.706140 -0.040573
C8    C     C_R   0.277132 0.186069 0.251886 -0.108744
H8    H     H_    0.298923 0.123151 0.236919 0.146697
N8    N     N_R   0.347890 0.291110 0.293870 -0.051107
C9    C     C_R   0.174526 0.175826 0.230817 0.094743
C10   C     C_R   0.452059 0.451386 0.777617 0.072146
C11   C     C_R   0.563692 0.200551 0.504176 0.084965
C12   C     C_R   0.196808 0.568359 0.495475 0.063996
C13   C     C_R   0.466319 0.724064 0.408652 0.321550
N9    N     N_R   0.445950 0.652100 0.443170 -0.064161
C14   C     C_R   0.815537 0.566750 0.593259 -0.133670
H9    H     H_    0.878573 0.617057 0.679259 0.118677
N10   N     N_R   0.708930 0.502750 0.556810 -0.043637
C15   C     C_R   0.494593 0.402446 0.195456 -0.163966
H10   H     H_    0.513940 0.338687 0.167452 0.104485
N11   N     N_R   0.502760 0.445970 0.293860 -0.042693
C16   C     C_R   0.709332 0.800579 0.803470 -0.153100
H11   H     H_    0.676322 0.851546 0.831370 0.098976
N12   N     N_R   0.652110 0.708890 0.706130 -0.039128
C17   C     C_R   0.801823 0.710728 0.805200 -0.121645
H12   H     H_    0.855439 0.680563 0.834665 0.095559
N13   N     N_R   0.708930 0.652070 0.706130 -0.042891
C18   C     C_R   0.402919 0.492429 0.193606 -0.088384
H13   H     H_    0.337207 0.508505 0.161526 0.146790
N14   N     N_R   0.445950 0.502780 0.293850 -0.045233
C19   C     C_R   0.570136 0.812036 0.593011 -0.195604
H14   H     H_    0.626144 0.874812 0.678788 0.117519
N15   N     N_R   0.502760 0.708900 0.556790 -0.051301
C20   C     C_R   0.722849 0.476916 0.408728 -0.125979
H15   H     H_    0.699708 0.445818 0.322988 0.094482
N16   N     N_R   0.652110 0.445950 0.443190 -0.043985
Ni1   Ni    Ni4+2 0.369690 0.500010 0.369700 0.237721
Ni2   Ni    Ni4+2 0.630310 0.499990 0.630300 0.210335
Ni3   Ni    Ni4+2 0.500000 0.369720 0.369720 0.205516
Ni4   Ni    Ni4+2 0.500000 0.630280 0.630280 0.209788
C21   C     C_R   0.549129 0.824874 0.502303 -0.015645
C22   C     C_R   0.826909 0.555895 0.501708 0.056466
C23   C     C_R   0.433108 0.430787 0.130505 0.058297
C24   C     C_R   0.803448 0.804020 0.867870 0.091822
H16   H     H_    0.969941 0.422843 0.988868 0.109624
C25   C     C_R   0.057782 0.560042 0.154160 -0.051335
H17   H     H_    0.106780 0.615340 0.136339 0.167441
C26   C     C_R   0.071698 0.597333 0.260281 -0.101671
H18   H     H_    0.131833 0.681635 0.324190 0.156500
C27   C     C_R   0.007352 0.525959 0.283248 0.074813
C28   C     C_R   0.928397 0.417328 0.198584 -0.184291
H19   H     H_    0.877427 0.361510 0.214691 0.114516
C29   C     C_R   0.915678 0.380206 0.093012 -0.107213
H20   H     H_    0.855394 0.296299 0.028310 0.109891
C30   C     C_R   0.980284 0.451523 0.070805 -0.126794
C31   C     C_R   0.926544 0.565644 0.399300 -0.222499
H21   H     H_    0.850318 0.527846 0.322775 0.125817
C32   C     C_R   0.930412 0.605339 0.500805 0.047732
C33   C     C_R   0.034904 0.674592 0.598635 0.033561
C34   C     C_R   0.126167 0.670309 0.594032 -0.228370
H22   H     H_    0.204855 0.716069 0.669850 0.120075
C35   C     C_R   0.115134 0.605170 0.493030 0.060923
C36   C     C_R   0.018433 0.566392 0.393836 0.035180
C37   C     C_R   0.002878 0.821402 0.699412 -0.135042
H23   H     H_    0.950259 0.810866 0.621154 0.117833
C38   C     C_R   0.022740 0.901999 0.797165 -0.105854
H24   H     H_    0.985005 0.952242 0.793930 0.112522
C39   C     C_R   0.092129 0.918555 0.899124 -0.088511
H25   H     H_    0.108763 0.982178 0.974692 0.112790
C40   C     C_R   0.140118 0.853164 0.903531 -0.105252
H26   H     H_    0.193044 0.865538 0.982673 0.139496
C41   C     C_R   0.120539 0.772365 0.805972 -0.184404
H27   H     H_    0.158402 0.722441 0.811018 0.114634
C42   C     C_R   0.052107 0.756085 0.702795 0.110164
C43   C     C_R   0.450981 0.346895 0.876284 0.165915
C44   C     C_R   0.407254 0.402614 0.833523 0.034483
C45   C     C_R   0.333495 0.426207 0.862594 -0.192443
H28   H     H_    0.291034 0.461793 0.825904 0.129585
C46   C     C_R   0.328315 0.420790 0.952921 -0.196567
H29   H     H_    0.282108 0.452702 0.982420 0.139348
C47   C     C_R   0.396720 0.391422 0.013475 0.029215
C48   C     C_R   0.445320 0.341015 0.964825 0.164565
C49   C     C_3   0.557526 0.352363 0.014359 -0.514037
C50   C     C_3   0.564226 0.359295 0.918086 -0.516470
H30   H     H_    0.619673 0.429705 0.094479 0.202851
H31   H     H_    0.553651 0.277097 0.013864 0.188616
H32   H     H_    0.630150 0.440765 0.944359 0.204355
H33   H     H_    0.564839 0.288250 0.862606 0.188392
C51   C     C_R   0.597408 0.957389 0.438019 0.191155
C52   C     C_R   0.579372 0.930468 0.513513 0.073099
C53   C     C_R   0.579356 0.007730 0.599699 -0.192531
H34   H     H_    0.566166 0.992649 0.661563 0.131039
C54   C     C_R   0.583134 0.100823 0.600131 -0.192612
H35   H     H_    0.573468 0.153415 0.662502 0.128988
C55   C     C_R   0.585739 0.118033 0.513813 0.038406
C56   C     C_R   0.599005 0.047596 0.437584 0.159808
C57   C     C_3   0.599143 0.018202 0.331711 -0.529477
C58   C     C_3   0.599364 0.916239 0.332463 -0.454830
H36   H     H_    0.521080 0.998685 0.263759 0.209695
H37   H     H_    0.676774 0.076811 0.342662 0.194058
H38   H     H_    0.523339 0.839649 0.262159 0.244958
H39   H     H_    0.677886 0.916718 0.345217 0.184804
C59   C     C_R   0.975858 0.079440 0.116630 0.097545
C60   C     C_R   0.068896 0.075216 0.174681 -0.055147
C61   C     C_R   0.060804 0.972020 0.147237 0.307759
C62   C     C_R   0.968927 0.879247 0.049488 -0.267161
H40   H     H_    0.966786 0.801778 0.024259 0.165684
C63   C     C_R   0.883341 0.888197 0.982848 -0.009223
C64   C     C_R   0.883963 0.986904 0.021449 0.137181
C65   C     C_3   0.806550 0.008462 0.056845 -0.491475
C66   C     C_3   0.906542 0.108694 0.160632 -0.459170
H41   H     H_    0.753735 0.027925 0.002656 0.178352
H42   H     H_    0.760992 0.945095 0.071936 0.202846
H43   H     H_    0.911302 0.185978 0.166575 0.180692
H44   H     H_    0.920069 0.104118 0.236724 0.202738
Br1   Br    Br    0.168394 0.951125 0.239810 -0.594459
Br2   Br    Br    0.358405 0.703786 0.277080 -0.668827

loop_
_geom_bond_atom_site_label_1
_geom_bond_atom_site_label_2
_geom_bond_distance
_ccdc_geom_bond_type
C25   C30   1.397961 A    
C6    C12   1.380330 A    
N15   Ni4   1.863717 S    
C28   C29   1.397811 A    
C41   H27   1.082718 S    
C26   C27   1.404416 A    
C61   Br1   1.920371 S    
C32   C33   1.412424 A    
C50   H33   1.112128 S    
C56   C57   1.486704 S    
C18   H13   1.075208 S    
C57   H36   1.111671 S    
C48   C49   1.497222 S    
N6    Ni1   1.847615 S    
C3    H3    1.080683 S    
C35   C36   1.420004 A    
C16   H11   1.080546 S    
N5    Ni2   1.863512 S    
C33   C42   1.486837 S    
N9    N15   1.373936 A    
C7    N7    1.341558 A    
C15   H10   1.079915 S    
N13   Ni2   1.862806 S    
C15   C23   1.375007 A    
C13   Br2   1.911715 S    
C53   H34   1.082473 S    
C66   H44   1.112537 S    
N8    Ni3   1.838630 S    
C3    C11   1.377384 A    
C54   H35   1.083702 S    
C1    H1    1.078662 S    
C22   C32   1.474913 S    
C25   C26   1.398898 A    
C7    C10   1.396335 A    
C23   C47   1.461152 S    
C59   C60   1.395091 A    
C57   C58   1.538511 S    
C18   C23   1.381256 A    
C55   C56   1.385954 A    
N12   Ni4   1.838629 S    
C7    H7    1.079858 S    
C11   C55   1.422861 S    
C6    H6    1.071377 S    
C20   N16   1.334791 A    
C8    C9    1.388193 A    
C65   H42   1.112593 S    
C14   N10   1.335647 A    
C43   C48   1.378913 A    
C58   H38   1.106850 S    
C17   N13   1.341653 A    
C28   H19   1.083228 S    
C17   C24   1.383616 A    
C5    H5    1.082458 S    
C24   C63   1.453694 S    
N1    N8    1.383597 A    
C25   H17   1.082000 S    
C9    C60   1.462646 S    
C51   C52   1.392300 A    
C38   C39   1.396047 A    
C38   H24   1.082371 S    
N12   N13   1.383595 A    
C40   C41   1.399012 A    
N10   Ni2   1.847617 S    
C19   N15   1.320292 A    
C62   C63   1.403079 A    
C33   C34   1.398449 A    
C63   C64   1.393912 A    
C37   H23   1.083092 S    
C2    N2    1.326533 A    
C44   C45   1.406595 A    
C31   C32   1.396704 A    
C29   H20   1.082466 S    
N14   Ni1   1.847821 S    
C10   C44   1.461841 S    
C40   H26   1.082487 S    
N2    N7    1.383354 A    
C51   C58   1.495458 S    
C1    N1    1.334946 A    
C34   H22   1.079996 S    
C13   N9    1.339108 A    
C51   C56   1.351432 A    
C18   N14   1.339897 A    
C39   H25   1.081550 S    
H16   C30   1.082337 S    
N1    Ni1   1.862806 S    
C47   C48   1.398920 A    
C45   C46   1.400336 A    
N11   N14   1.383351 A    
C59   C64   1.383528 A    
C46   C47   1.409534 A    
C12   C35   1.483084 S    
C34   C35   1.406199 A    
C62   H40   1.081850 S    
C16   C24   1.373790 A    
C4    N4    1.341922 A    
C58   H39   1.111623 S    
C6    N6    1.328922 A    
C17   H12   1.080851 S    
C39   C40   1.396901 A    
C27   C28   1.406312 A    
C49   H30   1.112471 S    
C41   C42   1.407748 A    
C65   C66   1.504316 S    
C20   H15   1.077345 S    
C8    N8    1.335362 A    
N2    Ni2   1.847821 S    
N4    N6    1.373935 A    
C43   C50   1.500661 S    
C61   C62   1.398510 A    
N7    Ni4   1.863279 S    
C4    C12   1.395042 A    
C3    N3    1.339656 A    
N9    Ni1   1.863512 S    
C19   H14   1.078717 S    
C27   C36   1.476758 S    
C14   H9    1.075581 S    
C2    H2    1.073752 S    
C20   C22   1.395207 A    
C2    C10   1.381038 A    
C60   C61   1.415793 A    
C1    C9    1.391681 A    
C13   C21   1.391786 A    
N10   N16   1.373935 A    
C49   H31   1.111796 S    
C52   C53   1.409147 A    
C37   C38   1.397813 A    
C66   H43   1.111730 S    
N16   Ni3   1.838577 S    
C14   C22   1.390992 A    
C5    N5    1.316984 A    
N3    N5    1.373935 A    
C31   H21   1.081255 S    
C16   N12   1.329482 A    
C43   C44   1.403741 A    
C53   C54   1.380464 A    
C45   H28   1.081806 S    
C54   C55   1.404549 A    
C15   N11   1.329480 A    
C31   C36   1.388145 A    
C46   H29   1.080960 S    
C21   C52   1.432347 S    
C37   C42   1.407740 A    
N4    Ni4   1.838577 S    
N11   Ni3   1.863278 S    
C4    H4    1.079802 S    
C26   H18   1.083207 S    
C50   H32   1.112448 S    
C29   C30   1.397603 A    
C49   C50   1.505259 S    
C19   C21   1.375515 A    
C65   H41   1.111798 S    
C8    H8    1.075367 S    
C5    C11   1.361360 A    
N3    Ni3   1.863718 S    
C59   C66   1.494571 S    
C57   H37   1.111400 S    
C64   C65   1.495232 S    
