data_str_m9_o11_o18_f0_sra.sym.28
_audit_creation_date              2012-12-11T14:21:14-0500
_audit_creation_method            fapswitch 2.2
_symmetry_space_group_name_H-M    P1
_symmetry_Int_Tables_number       1
_space_group_crystal_system       triclinic
_cell_length_a                    21.979613
_cell_length_b                    7.204069
_cell_length_c                    14.886147
_cell_angle_alpha                 90.000782
_cell_angle_beta                  106.853558
_cell_angle_gamma                 89.999741
_cell_volume                      2255.87140007

loop_
_atom_site_label
_atom_site_type_symbol
_atom_type_description
_atom_site_fract_x
_atom_site_fract_y
_atom_site_fract_z
_atom_type_partial_charge
O1    O     O_R   0.584770 0.505770 0.002090 -0.541674
O2    O     O_R   0.415230 0.005770 0.997910 -0.541675
O3    O     O_R   0.467060 0.173340 0.861950 -0.538569
O4    O     O_R   0.532940 0.673340 0.138050 -0.538565
C1    C     C_R   0.454934 0.344522 0.825831 0.671097
C2    C     C_R   0.545066 0.844524 0.174169 0.671099
O5    O     O_R   0.587510 0.175890 0.993210 -0.539673
O6    O     O_R   0.412490 0.675890 0.006790 -0.539674
O7    O     O_R   0.536540 0.008150 0.130100 -0.534599
O8    O     O_R   0.463460 0.508150 0.869900 -0.534598
C3    C     C_R   0.612969 0.344933 0.997414 0.728600
C4    C     C_R   0.387031 0.844934 0.002585 0.728612
O9    O     O_3   0.483140 0.340040 0.044760 -0.376049
O10   O     O_3   0.516860 0.840040 0.955240 -0.376051
V1    V     V_3+5 0.503130 0.064190 0.991700 1.426521
V2    V     V_3+5 0.496870 0.564190 0.008300 1.426522
C5    C     C_2   0.214516 0.728028 0.005954 -0.134903
C6    C     C_2   0.785485 0.228016 0.994048 -0.134881
C7    C     C_2   0.180532 0.886869 0.997271 -0.309573
C8    C     C_2   0.819467 0.386871 0.002725 -0.309547
H1    H     H_    0.191683 0.597409 0.013033 0.138318
H2    H     H_    0.808316 0.097383 0.986985 0.138302
H3    H     H_    0.201961 0.019032 0.989702 0.127697
H4    H     H_    0.798039 0.519046 0.010279 0.127682
C9    C     C_2   0.282375 0.714902 0.005774 -0.136100
C10   C     C_2   0.717625 0.214892 0.994226 -0.136096
C11   C     C_2   0.319914 0.861541 0.003272 -0.300597
C12   C     C_2   0.680086 0.361538 0.996723 -0.300591
H5    H     H_    0.301966 0.575932 0.008518 0.136871
H6    H     H_    0.698035 0.075921 0.991488 0.136867
H7    H     H_    0.301640 0.001418 0.001785 0.131780
H8    H     H_    0.698358 0.501417 0.998206 0.131780
C13   C     C_R   0.927340 0.882864 0.723963 -0.026671
C14   C     C_R   0.072660 0.382869 0.276037 -0.026666
C15   C     C_R   0.573754 0.854909 0.275828 -0.017519
C16   C     C_R   0.426248 0.354899 0.724172 -0.017518
C17   C     C_R   0.937536 0.837592 0.568440 -0.168304
C18   C     C_R   0.062465 0.337576 0.431558 -0.168305
C19   C     C_R   0.965497 0.858211 0.664614 -0.177477
C20   C     C_R   0.034504 0.358201 0.335384 -0.177480
C21   C     C_R   0.861230 0.885203 0.687522 -0.212844
C22   C     C_R   0.138771 0.385220 0.312476 -0.212850
C23   C     C_R   0.831388 0.861028 0.590297 0.109933
C24   C     C_R   0.168613 0.361021 0.409699 0.109930
C25   C     C_R   0.871057 0.839221 0.530889 0.140141
C26   C     C_R   0.128945 0.339205 0.469107 0.140145
C27   C     C_R   0.763839 0.861693 0.550166 -0.004828
C28   C     C_R   0.236164 0.361673 0.449830 -0.004826
C29   C     C_R   0.737057 0.847041 0.450804 0.055810
C30   C     C_R   0.262946 0.347020 0.549192 0.055810
C31   C     C_R   0.778819 0.826134 0.394863 -0.166780
C32   C     C_R   0.221183 0.326121 0.605133 -0.166781
C33   C     C_R   0.844270 0.820868 0.434394 -0.206164
C34   C     C_R   0.155732 0.320850 0.565602 -0.206165
C35   C     C_R   0.722351 0.878033 0.606336 -0.275664
C36   C     C_R   0.277653 0.378002 0.393661 -0.275671
C37   C     C_R   0.657311 0.903218 0.567566 0.392756
C38   C     C_R   0.342693 0.403195 0.432434 0.392747
C39   C     C_R   0.630138 0.889186 0.470079 0.036123
C40   C     C_R   0.369865 0.389167 0.529921 0.036121
C41   C     C_R   0.669504 0.856065 0.410739 0.029183
C42   C     C_R   0.330498 0.356042 0.589259 0.029180
C43   C     C_R   0.563931 0.907369 0.431048 -0.147178
C44   C     C_R   0.436071 0.407361 0.568954 -0.147175
C45   C     C_R   0.536318 0.894004 0.334597 -0.192124
C46   C     C_R   0.463684 0.394001 0.665405 -0.192139
C47   C     C_R   0.639497 0.835211 0.313232 -0.179229
C48   C     C_R   0.360505 0.335182 0.686765 -0.179232
H9    H     H_    0.874322 0.804835 0.388578 0.122201
H10   H     H_    0.125681 0.304818 0.611417 0.122203
H11   H     H_    0.665535 0.805035 0.263846 0.090024
H12   H     H_    0.334468 0.304992 0.736149 0.090028
H13   H     H_    0.485684 0.914041 0.305790 0.109673
H14   H     H_    0.514318 0.414044 0.694213 0.109679
H15   H     H_    0.967930 0.819901 0.523272 0.119396
H16   H     H_    0.032072 0.319879 0.476725 0.119396
H17   H     H_    0.016794 0.854306 0.692813 0.106874
H18   H     H_    0.983207 0.354290 0.307187 0.106874
H19   H     H_    0.834947 0.906702 0.737460 0.091803
H20   H     H_    0.165054 0.406740 0.262541 0.091805
H21   H     H_    0.762745 0.815628 0.319576 0.119076
H22   H     H_    0.237257 0.315625 0.680419 0.119077
H23   H     H_    0.738748 0.875259 0.681762 0.140449
H24   H     H_    0.261255 0.375216 0.318235 0.140445
H25   H     H_    0.533190 0.933911 0.474828 0.147332
H26   H     H_    0.466813 0.433908 0.525175 0.147339
O11   O     O_R   0.036450 0.233070 0.130130 -0.536611
O12   O     O_R   0.963550 0.733070 0.869870 -0.536612
O13   O     O_R   0.912470 0.560570 0.006790 -0.545126
O14   O     O_R   0.087530 0.060570 0.993210 -0.545123
C49   C     C_R   0.886896 0.391951 0.002213 0.731029
C50   C     C_R   0.113104 0.891950 0.997787 0.731039
O15   O     O_R   0.032920 0.562940 0.138050 -0.539828
O16   O     O_R   0.967080 0.062940 0.861950 -0.539826
O17   O     O_R   0.084790 0.730500 0.002090 -0.537359
O18   O     O_R   0.915210 0.230500 0.997910 -0.537357
C51   C     C_R   0.044325 0.394049 0.174584 0.685425
C52   C     C_R   0.955674 0.894046 0.825416 0.685424
O19   O     O_3   0.016820 0.396170 0.955260 -0.378159
O20   O     O_3   0.983180 0.896170 0.044740 -0.378161
V3    V     V_3+5 0.996880 0.672090 0.008300 1.413139
V4    V     V_3+5 0.003120 0.172090 0.991700 1.413141
O21   O     O_3   0.620057 0.927651 0.627448 -0.576876
C53   C     C_3   0.613025 0.119752 0.642586 0.063176
H27   H     H_    0.570078 0.135156 0.666845 0.153603
H28   H     H_    0.604129 0.202936 0.576785 0.109234
C54   C     C_3   0.670457 0.197619 0.718854 -0.333712
H29   H     H_    0.682122 0.104592 0.781096 0.208364
H30   H     H_    0.712325 0.205108 0.691524 0.189611
C55   C     C_3   0.657593 0.392542 0.749099 -0.789795
H31   H     H_    0.642072 0.485942 0.687248 0.244694
H32   H     H_    0.701745 0.449788 0.798096 0.237142
H33   H     H_    0.620486 0.387919 0.786126 0.216887
O22   O     O_3   0.379949 0.427658 0.372557 -0.576873
C56   C     C_3   0.386968 0.619767 0.357426 0.063189
H34   H     H_    0.429928 0.635215 0.333203 0.153591
H35   H     H_    0.395833 0.702958 0.423222 0.109230
C57   C     C_3   0.329546 0.697582 0.281125 -0.333683
H36   H     H_    0.317915 0.604552 0.218883 0.208364
H37   H     H_    0.287660 0.705016 0.308417 0.189604
C58   C     C_3   0.342399 0.892524 0.250896 -0.789800
H38   H     H_    0.357896 0.985925 0.312751 0.244687
H39   H     H_    0.298249 0.949739 0.201881 0.237145
H40   H     H_    0.379521 0.887946 0.213893 0.216886

loop_
_geom_bond_atom_site_label_1
_geom_bond_atom_site_label_2
_ccdc_geom_bond_type
C43   C45   A    
C22   H20   S    
C17   C25   A    
O18   V4    S    
C21   C23   A    
C14   C22   A    
C33   H9    S    
C2    O7    A    
C53   H28   S    
O12   V3    S    
C27   C29   A    
C18   H16   S    
O5    C3    A    
C13   C19   A    
C14   C20   A    
C19   H17   S    
C16   C46   A    
C37   C39   A    
C15   C45   A    
C38   C40   A    
C56   H34   S    
C46   H14   S    
C1    C16   S    
C14   C51   S    
C45   H13   S    
C2    C15   S    
C40   C42   A    
C13   C52   S    
C57   H36   S    
O14   V4    S    
C58   H40   S    
C7    C50   S    
C49   O18   A    
C55   H31   S    
C8    H4    S    
C24   C26   A    
C29   C31   A    
C6    C10   S    
C30   C32   A    
C54   H29   S    
O13   C49   A    
C31   H21   S    
C47   H11   S    
C48   H12   S    
C28   C30   A    
C17   H15   S    
O2    C4    A    
O6    V2    S    
C43   H25   S    
C54   H30   S    
C22   C24   A    
C44   H26   S    
C53   H27   S    
C32   C34   A    
C36   H24   S    
C57   H37   S    
C9    H5    S    
C37   O21   S    
C8    C49   S    
C39   C41   A    
C29   C41   A    
C4    C11   S    
C11   H7    S    
C12   H8    S    
O4    C2    A    
O15   V3    S    
C56   H35   S    
C50   O17   A    
C5    H1    S    
C31   C33   A    
C57   C58   S    
C44   C46   A    
O4    V2    S    
C7    H3    S    
O11   V4    S    
C41   C47   A    
O14   C50   A    
C34   H10   S    
C15   C47   A    
O6    C4    A    
C56   C57   S    
C26   C34   A    
O1    V2    S    
C32   H22   S    
O2    V1    S    
C23   C25   A    
C55   H33   S    
C58   H38   S    
C10   H6    S    
C35   C37   A    
C30   C42   A    
C54   C55   S    
C20   H18   S    
C35   H23   S    
O15   C51   A    
C58   H39   S    
O3    V1    S    
C27   C35   A    
C28   C36   A    
O13   V3    S    
C6    H2    S    
C10   C12   D    
O3    C1    A    
C21   H19   S    
C16   C48   A    
O22   C56   S    
C9    C11   D    
C39   C43   A    
C42   C48   A    
C40   C44   A    
C13   C21   A    
O7    V1    S    
C5    C9    S    
C1    O8    A    
C17   C19   A    
O8    V2    S    
C18   C20   A    
C3    C12   S    
O5    V1    S    
O20   V3    S    
C5    C7    D    
C36   C38   A    
C6    C8    D    
C55   H32   S    
C18   C26   A    
C25   C33   A    
O17   V3    S    
O19   V4    S    
O16   V4    S    
O9    V2    S    
O21   C53   S    
C38   O22   S    
O16   C52   A    
O10   V1    S    
O1    C3    A    
C23   C27   A    
C53   C54   S    
O12   C52   A    
C24   C28   A    
O11   C51   A    
