data_str_m9_o5_o16_f0_sra.sym.82
_audit_creation_date              2012-12-11T17:14:10-0500
_audit_creation_method            fapswitch 2.2
_symmetry_space_group_name_H-M    P1
_symmetry_Int_Tables_number       1
_space_group_crystal_system       triclinic
_cell_length_a                    18.225072
_cell_length_b                    7.093377
_cell_length_c                    13.014396
_cell_angle_alpha                 89.708882
_cell_angle_beta                  72.167339
_cell_angle_gamma                 90.056146
_cell_volume                      1601.60558685

loop_
_atom_site_label
_atom_site_type_symbol
_atom_type_description
_atom_site_fract_x
_atom_site_fract_y
_atom_site_fract_z
_atom_type_partial_charge
O1    O     O_R   0.453880 0.506200 0.150010 -0.542044
O2    O     O_R   0.546120 0.006200 0.849990 -0.539547
O3    O     O_R   0.604080 0.177770 0.007280 -0.528359
O4    O     O_R   0.395920 0.677770 0.992720 -0.534059
C1    C     C_R   0.635969 0.344560 0.001841 0.730612
C2    C     C_R   0.364034 0.844451 0.998173 0.729178
O5    O     O_R   0.458010 0.176640 0.159130 -0.538140
O6    O     O_R   0.541990 0.676640 0.840870 -0.540313
O7    O     O_R   0.399010 0.004010 0.002930 -0.533451
O8    O     O_R   0.600990 0.504010 0.997070 -0.540171
C3    C     C_R   0.443375 0.344602 0.201721 0.687948
C4    C     C_R   0.556601 0.845931 0.798332 0.686473
O9    O     O_3   0.480810 0.338440 0.948570 -0.365643
O10   O     O_3   0.519190 0.838440 0.051430 -0.368511
V1    V     V_3+5 0.503560 0.064490 0.009540 1.538089
V2    V     V_3+5 0.496440 0.564490 0.990460 1.521212
C5    C     C_R   0.581318 0.915882 0.504117 -0.084847
C6    C     C_R   0.419448 0.325970 0.497921 -0.086782
H1    H     H_    0.484883 0.912667 0.648550 0.136017
H2    H     H_    0.515845 0.317997 0.353584 0.140267
H3    H     H_    0.544928 0.945413 0.453943 0.172822
H4    H     H_    0.456190 0.311636 0.549066 0.174048
C7    C     C_R   0.591823 0.857792 0.681677 -0.032533
C8    C     C_R   0.408277 0.349889 0.318520 -0.032881
C9    C     C_R   0.951945 0.822195 0.383411 0.553100
C10   C     C_R   0.047641 0.376873 0.615312 0.552008
C11   C     C_R   0.919882 0.803227 0.494217 -0.128700
C12   C     C_R   0.079497 0.380426 0.503998 -0.126816
C13   C     C_R   0.840582 0.816356 0.541824 -0.162844
C14   C     C_R   0.158974 0.372580 0.456891 -0.161593
C15   C     C_R   0.790434 0.849425 0.479092 0.004816
C16   C     C_R   0.209515 0.360686 0.520666 0.004253
C17   C     C_R   0.823477 0.870834 0.364974 -0.221508
C18   C     C_R   0.176708 0.354767 0.635405 -0.222382
C19   C     C_R   0.708688 0.862007 0.526203 0.020195
C20   C     C_R   0.291430 0.354201 0.473998 0.020434
C21   C     C_R   0.661707 0.899070 0.458996 -0.089125
C22   C     C_R   0.338853 0.337646 0.542408 -0.089092
C23   C     C_R   0.695164 0.919703 0.347621 0.528016
C24   C     C_R   0.305637 0.332104 0.654380 0.527723
C25   C     C_R   0.774409 0.905024 0.300941 0.503193
C26   C     C_R   0.226199 0.341633 0.700519 0.502313
C27   C     C_R   0.671650 0.839871 0.638254 -0.143567
C28   C     C_R   0.328223 0.362610 0.361274 -0.143543
C29   C     C_R   0.546748 0.896695 0.614869 -0.172897
C30   C     C_R   0.453792 0.330329 0.386638 -0.175591
C31   C     C_R   0.904819 0.856203 0.318279 -0.168715
C32   C     C_R   0.095164 0.363616 0.681551 -0.168460
H5    H     H_    0.702798 0.810783 0.694732 0.091855
H6    H     H_    0.296729 0.376350 0.303859 0.092360
H7    H     H_    0.820773 0.800089 0.628188 0.141484
H8    H     H_    0.178608 0.375733 0.370080 0.140604
H9    H     H_    0.956841 0.777238 0.543975 0.169271
H10   H     H_    0.042226 0.390254 0.453411 0.165837
C33   C     C_1   0.216323 0.858859 0.000249 -0.089834
C34   C     C_1   0.783677 0.358667 0.999761 -0.087985
C35   C     C_1   0.283613 0.852513 0.999042 -0.124296
C36   C     C_1   0.716384 0.352623 0.000966 -0.123321
O11   O     O_R   0.899030 0.205490 0.002790 -0.518137
O12   O     O_R   0.100970 0.705490 0.997210 -0.529909
O13   O     O_R   0.042000 0.536370 0.840840 -0.544990
O14   O     O_R   0.958000 0.036370 0.159160 -0.538025
C37   C     C_R   0.058008 0.368938 0.798385 0.884871
C38   C     C_R   0.942057 0.867615 0.201570 0.885463
O15   O     O_R   0.895930 0.535070 0.992690 -0.537336
O16   O     O_R   0.104070 0.035070 0.007310 -0.525547
O17   O     O_R   0.953870 0.707520 0.150040 -0.542181
O18   O     O_R   0.046130 0.207520 0.849960 -0.535093
C39   C     C_R   0.864123 0.366687 0.998722 0.748148
C40   C     C_R   0.135872 0.866823 0.001276 0.747220
O19   O     O_3   0.019200 0.374340 0.051340 -0.380350
O20   O     O_3   0.980800 0.874340 0.948660 -0.381811
V3    V     V_3+5 0.996440 0.648350 0.990470 1.584494
V4    V     V_3+5 0.003560 0.148350 0.009530 1.607598
F1    F     F_    0.650698 0.954418 0.282715 -0.665512
F2    F     F_    0.350532 0.317540 0.720402 -0.662744
F3    F     F_    0.029530 0.806675 0.339134 -0.715199
F4    F     F_    0.969845 0.387034 0.658975 -0.716492
F5    F     F_    0.802009 0.925619 0.192077 -0.666003
F6    F     F_    0.198852 0.336920 0.809966 -0.665045

loop_
_geom_bond_atom_site_label_1
_geom_bond_atom_site_label_2
_ccdc_geom_bond_type
C22   C24   A    
C26   F6    S    
C7    C29   A    
C11   C13   A    
C3    C8    S    
C18   C26   A    
O2    C4    A    
C2    O7    A    
O15   V3    S    
C23   C25   A    
O5    C3    A    
C4    C7    S    
C10   F4    S    
C1    C36   S    
C9    F3    S    
C16   C20   A    
C19   C21   A    
C5    C29   A    
C17   C31   A    
O16   V4    S    
O12   V3    S    
C7    C27   A    
O13   C37   A    
O14   C38   A    
O1    C3    A    
C15   C17   A    
O17   V3    S    
C23   F1    S    
C19   C27   A    
C9    C31   A    
C10   C32   A    
C24   C26   A    
O6    V2    S    
C2    C35   S    
C6    C30   A    
C38   O17   A    
O20   V4    S    
C31   C38   S    
O19   V3    S    
C12   H10   S    
C27   H5    S    
C32   C37   S    
O5    V1    S    
O13   V3    S    
C5    H3    S    
C24   F2    S    
C16   C18   A    
O4    V2    S    
O12   C40   A    
O6    C4    A    
H1    C29   S    
O1    V2    S    
C5    C21   A    
O2    V1    S    
O11   V4    S    
O11   C39   A    
O4    C2    A    
C33   C35   T    
C8    C28   A    
C15   C19   A    
C20   C28   A    
C18   C32   A    
O3    V1    S    
C13   H7    S    
C28   H6    S    
C14   H8    S    
C37   O18   A    
C6    H4    S    
O20   V3    S    
O3    C1    A    
C25   F5    S    
O19   V4    S    
C11   H9    S    
C9    C11   A    
C10   C12   A    
C17   C25   A    
C12   C14   A    
C6    C22   A    
C8    C30   A    
C1    O8    A    
C21   C23   A    
O8    V2    S    
C14   C16   A    
O16   C40   A    
O15   C39   A    
C20   C22   A    
C34   C36   T    
O7    V1    S    
C33   C40   S    
C13   C15   A    
C34   C39   S    
O9    V2    S    
O10   V1    S    
O14   V4    S    
O18   V4    S    
H2    C30   S    
