data_str_m2_o1_o23_f0_pcu.sym.258
_audit_creation_date              2012-12-10T17:59:49-0500
_audit_creation_method            fapswitch 2.2
_symmetry_space_group_name_H-M    P1
_symmetry_Int_Tables_number       1
_space_group_crystal_system       triclinic
_cell_length_a                    10.907025
_cell_length_b                    9.764216
_cell_length_c                    15.974055
_cell_angle_alpha                 87.548041
_cell_angle_beta                  99.308571
_cell_angle_gamma                 89.785132
_cell_volume                      1677.17600956

loop_
_atom_site_label
_atom_site_type_symbol
_atom_type_description
_atom_site_fract_x
_atom_site_fract_y
_atom_site_fract_z
_atom_type_partial_charge
C1    C     C_R   0.262171 0.500227 0.499007 0.883327
C2    C     C_R   0.925655 0.619310 0.460967 0.251368
C3    C     C_R   0.866763 0.497803 0.481629 -0.175107
C4    C     C_R   0.125970 0.500193 0.493855 -0.194433
C5    C     C_R   0.420252 0.079106 0.438549 0.181026
C6    C     C_R   0.422921 0.930028 0.438177 0.153373
C7    C     C_R   0.495447 0.502974 0.340437 0.795791
C8    C     C_R   0.584379 0.922110 0.556780 0.199388
C9    C     C_R   0.571116 0.067554 0.564187 0.147574
C10   C     C_R   0.735380 0.499733 0.493307 0.861009
C11   C     C_R   0.500071 0.497418 0.659721 0.786168
C12   C     C_3   0.617492 0.432493 0.975212 0.135103
C13   C     C_3   0.477377 0.664381 0.040074 -0.103046
C14   C     C_3   0.368020 0.431764 0.037159 -0.130795
C15   C     C_3   0.373071 0.421036 0.939141 0.660306
C16   C     C_3   0.476776 0.656021 0.940954 0.649711
C17   C     C_1   0.498575 0.492452 0.749915 -0.193532
C18   C     C_3   0.482210 0.515471 0.082239 0.023977
C19   C     C_3   0.492637 0.498870 0.918089 0.103113
C20   C     C_3   0.715321 0.863237 0.589984 -0.327716
C21   C     C_3   0.739886 0.752221 0.662993 -0.327274
C22   C     C_3   0.684318 0.781187 0.741691 -0.772415
C23   C     C_3   0.606241 0.448638 0.070936 -0.471068
C24   C     C_3   0.631032 0.125175 0.648965 -0.382683
C25   C     C_3   0.749839 0.208343 0.644850 -0.284414
C26   C     C_3   0.860272 0.172468 0.714567 -0.937491
C27   C     C_3   0.346206 0.290674 0.082582 -0.345391
C28   C     C_3   0.212350 0.239741 0.057233 -0.349932
C29   C     C_3   0.196057 0.095285 0.093026 -0.858046
C30   C     C_3   0.578852 0.761030 0.086562 -0.374680
C31   C     C_3   0.537653 0.911947 0.083494 -0.365618
C32   C     C_3   0.639678 0.998748 0.131649 -0.879170
C33   C     C_3   0.737903 0.508847 0.955192 -0.318465
C34   C     C_1   0.496926 0.493053 0.825514 -0.026677
C35   C     C_3   0.865309 0.446114 0.994612 -0.435899
C36   C     C_3   0.969381 0.545780 0.982113 -0.829793
C37   C     C_3   0.636995 0.274502 0.967259 -0.317487
C38   C     C_3   0.654614 0.224770 0.880695 -0.340736
C39   C     C_3   0.726063 0.089066 0.893312 -0.899266
C40   C     C_3   0.333536 0.163607 0.368533 -0.345878
C41   C     C_3   0.192505 0.134771 0.350954 -0.407306
C42   C     C_3   0.116761 0.260097 0.310445 -0.847565
C43   C     C_3   0.337767 0.856265 0.370654 -0.305031
C44   C     C_3   0.370083 0.866453 0.280463 -0.405397
C45   C     C_1   0.480564 0.517263 0.174415 -0.052447
C46   C     C_3   0.272220 0.791166 0.220040 -0.867265
C47   C     C_1   0.486526 0.511201 0.250277 -0.173014
C48   C     C_R   0.064729 0.377246 0.509621 0.240289
C49   C     C_R   0.055220 0.618491 0.463300 0.250608
C50   C     C_R   0.934523 0.373755 0.490074 0.226832
Cu1   Cu    Cu3+1 0.500020 0.640660 0.500000 0.951482
Cu2   Cu    Cu3+1 0.500020 0.359340 0.500000 0.949128
H1    H     H_    0.386318 0.708254 0.048844 0.168200
H2    H     H_    0.842310 0.742865 0.682596 0.183412
H3    H     H_    0.713230 0.649127 0.642966 0.229043
H4    H     H_    0.753500 0.830017 0.535135 0.230016
H5    H     H_    0.781153 0.946138 0.608729 0.160825
H6    H     H_    0.849666 0.220940 0.774186 0.266815
H7    H     H_    0.873097 0.060118 0.726084 0.264845
H8    H     H_    0.946412 0.214150 0.694941 0.257422
H9    H     H_    0.781137 0.186761 0.584910 0.288443
H10   H     H_    0.729978 0.319199 0.647842 0.222437
H11   H     H_    0.562538 0.177762 0.680056 0.208283
H12   H     H_    0.285184 0.495464 0.043078 0.147429
H13   H     H_    0.654903 0.039468 0.695289 0.189228
H14   H     H_    0.255026 0.021854 0.065828 0.264655
H15   H     H_    0.221054 0.092070 0.162996 0.258084
H16   H     H_    0.097518 0.064518 0.076290 0.244039
H17   H     H_    0.147405 0.308847 0.082417 0.201098
H18   H     H_    0.185901 0.238719 0.987362 0.253848
H19   H     H_    0.413077 0.212397 0.069184 0.230507
H20   H     H_    0.361366 0.298536 0.152515 0.189552
H21   H     H_    0.666393 0.957355 0.198007 0.268900
H22   H     H_    0.722749 0.000065 0.099564 0.257044
H23   H     H_    0.684390 0.509401 0.103519 0.182511
H24   H     H_    0.605603 0.105228 0.134094 0.227417
H25   H     H_    0.513976 0.953211 0.017109 0.236118
H26   H     H_    0.454034 0.921081 0.113916 0.221691
H27   H     H_    0.602701 0.729163 0.154738 0.213394
H28   H     H_    0.667168 0.754162 0.061385 0.223713
H29   H     H_    0.353367 0.280420 0.853854 0.337962
H30   H     H_    0.542904 0.831666 0.904049 0.340066
H31   H     H_    0.968811 0.569333 0.913385 0.269110
H32   H     H_    0.958140 0.642579 0.014321 0.255286
H33   H     H_    0.060544 0.500009 0.009693 0.232759
H34   H     H_    0.615539 0.348988 0.108111 0.167126
H35   H     H_    0.869232 0.422972 0.063677 0.223269
H36   H     H_    0.882613 0.349997 0.963522 0.234894
H37   H     H_    0.735802 0.519728 0.885728 0.192651
H38   H     H_    0.739685 0.612812 0.978942 0.243913
H39   H     H_    0.822481 0.103960 0.926383 0.251451
H40   H     H_    0.679146 0.013378 0.930632 0.270745
H41   H     H_    0.730765 0.048609 0.831289 0.257853
H42   H     H_    0.563053 0.208963 0.840848 0.235821
H43   H     H_    0.706455 0.299895 0.846697 0.216707
H44   H     H_    0.719704 0.242017 0.014328 0.189310
H45   H     H_    0.365058 0.718958 0.837248 0.352201
H46   H     H_    0.563641 0.213016 0.989986 0.227051
H47   H     H_    0.078215 0.197276 0.567993 0.326604
H48   H     H_    0.058913 0.770258 0.382555 0.319085
H49   H     H_    0.932900 0.183902 0.456653 0.331836
H50   H     H_    0.904448 0.817049 0.444247 0.326362
H51   H     H_    0.131001 0.348624 0.351719 0.255058
H52   H     H_    0.144787 0.290042 0.248434 0.246958
H53   H     H_    0.016331 0.235178 0.299676 0.253972
H54   H     H_    0.171687 0.056858 0.302647 0.221097
H55   H     H_    0.159077 0.101129 0.410560 0.263294
H56   H     H_    0.192576 0.426309 0.900853 0.321050
H57   H     H_    0.333529 0.267518 0.386594 0.278863
H58   H     H_    0.372497 0.168333 0.308703 0.157520
H59   H     H_    0.268508 0.681461 0.240722 0.256281
H60   H     H_    0.179043 0.838444 0.218403 0.252899
H61   H     H_    0.294269 0.797062 0.154910 0.241212
H62   H     H_    0.373772 0.973029 0.256150 0.213641
H63   H     H_    0.463121 0.820787 0.279625 0.257413
H64   H     H_    0.333723 0.748378 0.386460 0.277153
H65   H     H_    0.242119 0.885947 0.372239 0.195694
H66   H     H_    0.744191 0.853436 0.780083 0.234196
H67   H     H_    0.587102 0.819614 0.725628 0.270999
H68   H     H_    0.685111 0.685446 0.781148 0.250493
N1    N     N_R   0.500030 0.852070 0.500020 -0.205041
N2    N     N_R   0.500030 0.147930 0.500020 -0.195051
O1    O     O_R   0.319660 0.618740 0.500000 -0.559332
O2    O     O_3   0.264816 0.483091 0.891817 -0.728350
O3    O     O_3   0.375588 0.283067 0.916536 -0.788041
O4    O     O_3   0.572201 0.735255 0.914013 -0.813027
O5    O     O_3   0.132812 0.261668 0.541982 -0.705661
O6    O     O_3   0.113199 0.730862 0.433805 -0.756125
O7    O     O_3   0.873331 0.252820 0.470725 -0.737925
O8    O     O_3   0.854303 0.733808 0.431720 -0.734546
O9    O     O_R   0.319660 0.381260 0.500000 -0.546597
O10   O     O_R   0.500020 0.618840 0.379440 -0.589313
O11   O     O_R   0.500020 0.381160 0.379440 -0.605156
O12   O     O_R   0.680370 0.618830 0.500010 -0.563083
O13   O     O_R   0.680370 0.381170 0.500010 -0.547464
O14   O     O_R   0.500010 0.618730 0.620560 -0.558499
O15   O     O_R   0.500010 0.381270 0.620560 -0.590187
O16   O     O_3   0.361861 0.711314 0.899048 -0.719965

loop_
_geom_bond_atom_site_label_1
_geom_bond_atom_site_label_2
_ccdc_geom_bond_type
C46   H60   S    
Cu1   O1    S    
C41   C42   S    
C14   C18   S    
C35   C36   S    
C20   H4    S    
C42   H51   S    
C22   H68   S    
C12   C23   S    
C8    C20   S    
C13   C18   S    
C21   C22   S    
C28   C29   S    
C50   O7    S    
C7    O11   A    
C32   H22   S    
C21   H2    S    
Cu1   O12   S    
C8    N1    A    
C36   H31   S    
Cu1   O14   S    
C12   C37   S    
H30   O4    S    
C2    O8    S    
C29   H15   S    
Cu2   N2    S    
C39   H41   S    
C28   H17   S    
C44   H63   S    
C8    C9    A    
C23   H34   S    
C38   H43   S    
C14   C27   S    
C26   H7    S    
C30   H28   S    
C48   C50   A    
C44   H62   S    
H45   O16   S    
C46   H59   S    
Cu2   O11   S    
C9    N2    A    
C22   H67   S    
C35   H35   S    
H56   O2    S    
C39   H39   S    
C37   H46   S    
C3    C50   A    
C44   C46   S    
C31   H25   S    
C13   H1    S    
C45   C47   T    
C38   C39   S    
C28   H18   S    
C15   O2    S    
C18   C23   S    
C10   O12   A    
C13   C30   S    
C24   C25   S    
C41   H54   S    
C32   H21   S    
C21   H3    S    
C40   H58   S    
C25   C26   S    
C5    N2    A    
Cu1   Cu2   S    
C37   H44   S    
C7    C47   S    
C15   C19   S    
C43   C44   S    
C1    O1    A    
C37   C38   S    
C2    C49   A    
C33   H37   S    
C43   H64   S    
C29   H16   S    
C35   H36   S    
C31   C32   S    
C30   C31   S    
C14   H12   S    
C38   H42   S    
Cu2   O15   S    
C25   H9    S    
C10   O13   A    
C26   H6    S    
C7    O10   A    
C24   H13   S    
C43   H65   S    
C30   H27   S    
C40   C41   S    
C24   H11   S    
C6    C43   S    
Cu1   N1    S    
C13   C16   S    
C17   C34   T    
C18   C45   S    
C39   H40   S    
C27   H19   S    
C31   H26   S    
C4    C48   A    
C22   H66   S    
C49   O6    S    
C11   C17   S    
C41   H55   S    
C46   H61   S    
H29   O3    S    
H48   O6    S    
Cu2   O9    S    
C20   H5    S    
C16   O16   S    
H50   O8    S    
C23   H23   S    
C1    O9    A    
C19   C34   S    
C42   H52   S    
C32   H24   S    
H47   O5    S    
Cu1   O10   S    
C9    C24   S    
C40   H57   S    
C36   H33   S    
C4    C49   A    
C1    C4    S    
C2    C3    A    
C11   O15   A    
C3    C10   S    
C33   H38   S    
C48   O5    S    
C5    C6    A    
C16   O4    S    
C36   H32   S    
C16   C19   S    
C12   C19   S    
C33   C35   S    
C25   H10   S    
C42   H53   S    
C29   H14   S    
C20   C21   S    
C15   O3    S    
C5    C40   S    
C27   C28   S    
Cu2   O13   S    
C14   C15   S    
C6    N1    A    
C12   C33   S    
C11   O14   A    
C26   H8    S    
C27   H20   S    
H49   O7    S    
