data_str_m9_o11_o18_f0_sra.sym.9
_audit_creation_date              2012-12-11T14:21:23-0500
_audit_creation_method            fapswitch 2.2
_symmetry_space_group_name_H-M    P1
_symmetry_Int_Tables_number       1
_space_group_crystal_system       triclinic
_cell_length_a                    21.953857
_cell_length_b                    7.202812
_cell_length_c                    14.904528
_cell_angle_alpha                 90.070128
_cell_angle_beta                  107.720365
_cell_angle_gamma                 90.057033
_cell_volume                      2245.01721906

loop_
_atom_site_label
_atom_site_type_symbol
_atom_type_description
_atom_site_fract_x
_atom_site_fract_y
_atom_site_fract_z
_atom_type_partial_charge
O1    O     O_R   0.584770 0.505770 0.002090 -0.548767
O2    O     O_R   0.415230 0.005770 0.997910 -0.547909
O3    O     O_R   0.467060 0.173340 0.861950 -0.528906
O4    O     O_R   0.532940 0.673340 0.138050 -0.535054
C1    C     C_R   0.454842 0.343913 0.825566 0.790811
C2    C     C_R   0.545523 0.844160 0.174409 0.786640
O5    O     O_R   0.587510 0.175890 0.993210 -0.514492
O6    O     O_R   0.412490 0.675890 0.006790 -0.516856
O7    O     O_R   0.536540 0.008150 0.130100 -0.538801
O8    O     O_R   0.463460 0.508150 0.869900 -0.540495
C3    C     C_R   0.612515 0.344616 0.995415 0.654165
C4    C     C_R   0.387499 0.844508 0.004634 0.653297
O9    O     O_3   0.483140 0.340040 0.044760 -0.380722
O10   O     O_3   0.516860 0.840040 0.955240 -0.377686
V1    V     V_3+5 0.503130 0.064190 0.991700 1.585822
V2    V     V_3+5 0.496870 0.564190 0.008300 1.572268
C5    C     C_2   0.212811 0.734066 0.995257 -0.273015
C6    C     C_2   0.787089 0.233933 0.004694 -0.266577
C7    C     C_2   0.177017 0.889233 0.983697 0.524641
C8    C     C_2   0.823054 0.389019 0.016521 0.517667
H1    H     H_    0.193330 0.603675 0.010913 0.124978
H2    H     H_    0.806405 0.103533 0.988768 0.133720
C9    C     C_2   0.276949 0.727436 0.979317 0.369865
C10   C     C_2   0.722954 0.227496 0.020648 0.368207
C11   C     C_2   0.322937 0.855609 0.017934 0.282179
C12   C     C_2   0.677120 0.355798 0.982252 0.286245
C13   C     C_R   0.930308 0.880572 0.721677 -0.211989
C14   C     C_R   0.071662 0.382625 0.278231 -0.272394
C15   C     C_R   0.574918 0.847797 0.276886 -0.217344
C16   C     C_R   0.427052 0.346716 0.722852 -0.215539
C17   C     C_R   0.943926 0.796504 0.570031 0.409216
C18   C     C_R   0.058976 0.288876 0.429215 0.403617
C19   C     C_R   0.970575 0.827044 0.668056 0.215019
C20   C     C_R   0.031782 0.326566 0.332072 0.253087
C21   C     C_R   0.864437 0.900308 0.678397 0.299571
C22   C     C_R   0.138408 0.397637 0.321260 0.308567
C23   C     C_R   0.836300 0.837376 0.584144 -0.125291
C24   C     C_R   0.166272 0.329756 0.413984 -0.058606
C25   C     C_R   0.876626 0.809741 0.526958 -0.133233
C26   C     C_R   0.126339 0.300131 0.471527 -0.159293
C27   C     C_R   0.769380 0.800372 0.545809 -0.178505
C28   C     C_R   0.233561 0.299151 0.452026 -0.142215
C29   C     C_R   0.740861 0.796184 0.446650 -0.023854
C30   C     C_R   0.262248 0.297878 0.551041 -0.047605
C31   C     C_R   0.781371 0.769797 0.389223 0.333575
C32   C     C_R   0.222216 0.265899 0.608715 0.334256
C33   C     C_R   0.848410 0.785405 0.428472 0.323808
C34   C     C_R   0.155021 0.275033 0.569820 0.324674
C35   C     C_R   0.731014 0.746831 0.603219 0.361277
C36   C     C_R   0.272695 0.256194 0.394205 0.437339
C37   C     C_R   0.664530 0.738401 0.565910 0.419752
C38   C     C_R   0.339163 0.265371 0.430249 0.398655
C39   C     C_R   0.634104 0.783887 0.470308 -0.192261
C40   C     C_R   0.369372 0.290762 0.528012 -0.183020
C41   C     C_R   0.672529 0.808509 0.409364 0.015600
C42   C     C_R   0.330439 0.314513 0.588324 0.016486
C43   C     C_R   0.566427 0.803067 0.434179 0.315377
C44   C     C_R   0.437186 0.281572 0.567843 0.330174
C45   C     C_R   0.537437 0.825692 0.336566 0.534835
C46   C     C_R   0.465029 0.305811 0.665677 0.534145
C47   C     C_R   0.641348 0.851748 0.313818 -0.205282
C48   C     C_R   0.360959 0.359135 0.683858 -0.197798
H3    H     H_    0.667371 0.890992 0.265998 0.204345
H4    H     H_    0.334294 0.403700 0.730059 0.202076
O11   O     O_R   0.036450 0.233070 0.130130 -0.532234
O12   O     O_R   0.963550 0.733070 0.869870 -0.541404
O13   O     O_R   0.912470 0.560570 0.006790 -0.503674
O14   O     O_R   0.087530 0.060570 0.993210 -0.507233
C49   C     C_R   0.887644 0.392060 0.005032 0.619654
C50   C     C_R   0.112380 0.892176 0.995045 0.591123
O15   O     O_R   0.032920 0.562940 0.138050 -0.545596
O16   O     O_R   0.967080 0.062940 0.861950 -0.529498
O17   O     O_R   0.084790 0.730500 0.002090 -0.568671
O18   O     O_R   0.915210 0.230500 0.997910 -0.557147
C51   C     C_R   0.045565 0.394439 0.174886 0.691526
C52   C     C_R   0.955001 0.894015 0.825050 0.775371
O19   O     O_3   0.016820 0.396170 0.955260 -0.375292
O20   O     O_3   0.983180 0.896170 0.044740 -0.373181
V3    V     V_3+5 0.996880 0.672090 0.008300 1.526232
V4    V     V_3+5 0.003120 0.172090 0.991700 1.548439
O21   O     O_3   0.035854 0.803325 0.708384 -0.632850
H5    H     H_    0.049771 0.850230 0.773859 0.285854
O22   O     O_3   0.966264 0.306319 0.292531 -0.634841
H6    H     H_    0.951780 0.364229 0.229471 0.293105
O23   O     O_3   0.829184 0.983984 0.729840 -0.613425
H7    H     H_    0.791160 0.042933 0.685284 0.319240
O24   O     O_3   0.177612 0.482716 0.276136 -0.607967
H8    H     H_    0.151800 0.549203 0.219329 0.298728
O25   O     O_3   0.755073 0.710502 0.297060 -0.643095
H9    H     H_    0.788821 0.678702 0.268277 0.358604
O26   O     O_3   0.249403 0.208447 0.700925 -0.641564
H10   H     H_    0.216154 0.172311 0.729908 0.357820
O27   O     O_3   0.757008 0.679650 0.693612 -0.573406
H11   H     H_    0.797921 0.617121 0.697521 0.306057
O28   O     O_3   0.248064 0.188515 0.303526 -0.568038
H12   H     H_    0.207799 0.121242 0.298814 0.299714
O29   O     O_3   0.529864 0.803366 0.495175 -0.610254
H13   H     H_    0.484265 0.823411 0.459667 0.366842
O30   O     O_3   0.474942 0.237141 0.511620 -0.614819
H14   H     H_    0.520699 0.238565 0.549245 0.354628
F1    F     F_    0.198381 0.048905 0.954574 -0.639532
F2    F     F_    0.801888 0.548656 0.046005 -0.639450
O31   O     O_3   0.290450 0.583241 0.927004 -0.646705
H15   H     H_    0.251731 0.504406 0.903976 0.324175
O32   O     O_3   0.709292 0.083353 0.072742 -0.646963
H16   H     H_    0.747916 0.004448 0.095634 0.324076
O33   O     O_3   0.310617 0.992908 0.075175 -0.586038
H17   H     H_    0.350258 0.065316 0.103434 0.329559
O34   O     O_3   0.689614 0.493101 0.925270 -0.585322
H18   H     H_    0.650057 0.565550 0.897112 0.328758
O35   O     O_3   0.884878 0.783717 0.367761 -0.609626
H19   H     H_    0.913534 0.893440 0.383425 0.337891
O36   O     O_3   0.118820 0.268066 0.630807 -0.607510
H20   H     H_    0.090361 0.378128 0.617238 0.338364
F3    F     F_    0.472677 0.827287 0.299442 -0.678764
F4    F     F_    0.529225 0.287259 0.705866 -0.682568
O37   O     O_3   0.631150 0.674318 0.624468 -0.556987
H21   H     H_    0.600143 0.580361 0.588657 0.338145
O38   O     O_3   0.373200 0.244775 0.367096 -0.555753
H22   H     H_    0.400459 0.356947 0.373676 0.342276
O39   O     O_3   0.982030 0.738736 0.516347 -0.613854
H23   H     H_    0.027783 0.742227 0.553607 0.346740
O40   O     O_3   0.021198 0.227766 0.482732 -0.614233
H24   H     H_    0.975346 0.232354 0.446079 0.342124

loop_
_geom_bond_atom_site_label_1
_geom_bond_atom_site_label_2
_ccdc_geom_bond_type
O14   V4    S    
C24   C26   A    
O24   H8    S    
C15   C47   A    
O27   H11   S    
C21   O23   S    
O28   H12   S    
O1    C3    A    
O16   C52   A    
O2    C4    A    
C2    O7    A    
O15   V3    S    
O21   H5    S    
O40   H24   S    
O23   H7    S    
C13   C19   A    
O5    C3    A    
O12   V3    S    
C5    C9    S    
O22   H6    S    
C6    C10   S    
C21   C23   A    
C10   C12   D    
C24   C28   A    
C36   O28   S    
C43   C45   A    
C8    F2    S    
C44   C46   A    
C31   C33   A    
C47   H3    S    
C45   F3    S    
C48   H4    S    
C5    C7    D    
C9    O31   S    
C15   C45   A    
C38   C40   A    
C35   C37   A    
C16   C46   A    
C36   C38   A    
O33   H17   S    
C17   C19   A    
C31   O25   S    
O5    V1    S    
C43   O29   S    
O6    V2    S    
O11   V4    S    
O18   V4    S    
C27   C29   A    
C18   O40   S    
C28   C30   A    
C27   C35   A    
C30   C32   A    
O29   H13   S    
C32   C34   A    
C39   C41   A    
C22   O24   S    
C23   C25   A    
C40   C42   A    
O13   V3    S    
C17   O39   S    
O4    C2    A    
O26   H10   S    
C39   C43   A    
O20   V3    S    
C32   O26   S    
C3    C12   S    
C13   C21   A    
C5    H1    S    
O13   C49   A    
C18   C20   A    
O4    V2    S    
C30   C42   A    
O30   H14   S    
O6    C4    A    
O12   C52   A    
C2    C15   S    
C50   O17   A    
O17   V3    S    
C49   O18   A    
O1    V2    S    
O2    V1    S    
C29   C31   A    
C12   O34   S    
O39   H23   S    
C28   C36   A    
C29   C41   A    
C16   C48   A    
C42   C48   A    
C8    C49   S    
C46   F4    S    
C20   O22   S    
C13   C52   S    
O3    V1    S    
C11   O33   S    
C25   C33   A    
O36   H20   S    
C40   C44   A    
O19   V4    S    
C26   C34   A    
O35   H19   S    
C6    H2    S    
C44   O30   S    
O3    C1    A    
O38   H22   S    
O32   H16   S    
O11   C51   A    
C4    C11   S    
C22   C24   A    
O7    V1    S    
C1    O8    A    
O16   V4    S    
O8    V2    S    
O37   H21   S    
O15   C51   A    
C7    F1    S    
C33   O35   S    
C41   C47   A    
C37   O37   S    
C17   C25   A    
C6    C8    D    
C18   C26   A    
C23   C27   A    
C37   C39   A    
C14   C20   A    
C38   O38   S    
C9    C11   D    
C14   C22   A    
O14   C50   A    
C1    C16   S    
O9    V2    S    
O31   H15   S    
O10   V1    S    
C7    C50   S    
C10   O32   S    
C35   O27   S    
O25   H9    S    
O34   H18   S    
C14   C51   S    
C19   O21   S    
C34   O36   S    
