data_str_m3_o4_o9_f0_pcu.sym.223
_audit_creation_date              2012-12-10T20:45:32-0500
_audit_creation_method            fapswitch 2.2
_symmetry_space_group_name_H-M    P1
_symmetry_Int_Tables_number       1
_space_group_crystal_system       triclinic
_cell_length_a                    10.758072
_cell_length_b                    10.72259
_cell_length_c                    9.86105
_cell_angle_alpha                 88.577383
_cell_angle_beta                  89.338496
_cell_angle_gamma                 91.357781
_cell_volume                      1136.76176327

loop_
_atom_site_label
_atom_site_type_symbol
_atom_type_description
_atom_site_fract_x
_atom_site_fract_y
_atom_site_fract_z
_atom_type_partial_charge
C1    C     C_R   0.499617 0.259968 0.501271 0.876843
C2    C     C_R   0.284289 0.802253 0.107345 -0.106899
C3    C     C_R   0.940752 0.592882 0.407198 0.431147
C4    C     C_R   0.873649 0.511524 0.499552 -0.239683
C5    C     C_R   0.935757 0.436783 0.596356 -0.053136
C6    C     C_R   0.063260 0.439788 0.597336 -0.239816
C7    C     C_R   0.129109 0.510702 0.500155 -0.140571
C8    C     C_R   0.070143 0.586641 0.403281 -0.153691
C9    C     C_R   0.858337 0.388966 0.832439 -0.111872
C10   C     C_R   0.794022 0.311522 0.926918 -0.121041
C11   C     C_R   0.743653 0.196880 0.887352 -0.131483
C12   C     C_R   0.260584 0.502403 0.500313 0.882818
C13   C     C_R   0.757224 0.159701 0.753186 -0.112026
C14   C     C_R   0.819766 0.237714 0.657827 -0.144544
C15   C     C_R   0.870748 0.352784 0.697092 0.146248
C16   C     C_R   0.472970 0.058627 0.618761 0.116843
C17   C     C_R   0.507990 0.128145 0.502932 -0.098696
C18   C     C_R   0.555828 0.069177 0.388663 -0.255363
C19   C     C_R   0.554153 0.940438 0.385536 -0.158543
C20   C     C_R   0.508218 0.871758 0.498383 -0.102806
C21   C     C_R   0.474299 0.931231 0.616092 0.120757
C22   C     C_3   0.355622 0.914741 0.694273 -0.477900
C23   C     C_R   0.500077 0.739839 0.498659 0.925229
C24   C     C_3   0.351896 0.055207 0.695776 -0.502105
C25   C     C_R   0.412569 0.431915 0.074295 0.221479
C26   C     C_R   0.574866 0.580032 0.068842 -0.106851
C27   C     C_R   0.576214 0.578995 0.924789 -0.136847
C28   C     C_R   0.411927 0.432832 0.931840 0.210128
C29   C     C_3   0.390679 0.295781 0.930208 -0.537080
C30   C     C_3   0.391636 0.294432 0.083966 -0.506609
C31   C     C_R   0.740244 0.504741 0.499316 0.959188
C32   C     C_R   0.272937 0.843779 0.239917 -0.116206
C33   C     C_R   0.204390 0.772926 0.336608 -0.076128
C34   C     C_R   0.144103 0.661420 0.300337 0.222728
C35   C     C_R   0.154990 0.620495 0.166564 -0.049626
C36   C     C_R   0.225235 0.690794 0.070510 -0.162046
H1    H     H_    0.338516 0.856865 0.033375 0.118417
H2    H     H_    0.694151 0.136859 0.960638 0.124941
H3    H     H_    0.719146 0.070465 0.723051 0.140417
H4    H     H_    0.828497 0.208691 0.553789 0.130756
H5    H     H_    0.589350 0.121987 0.300028 0.165780
H6    H     H_    0.583232 0.895760 0.293628 0.201730
H7    H     H_    0.279336 0.871635 0.635577 0.193405
H8    H     H_    0.370583 0.870616 0.795605 0.200431
H9    H     H_    0.274062 0.094948 0.636725 0.204578
H10   H     H_    0.360494 0.087747 0.800370 0.207641
H11   H     H_    0.634625 0.644544 0.120820 0.217997
H12   H     H_    0.316829 0.931132 0.267606 0.135857
H13   H     H_    0.639765 0.640727 0.868037 0.155512
H14   H     H_    0.297948 0.271832 0.888214 0.198404
H15   H     H_    0.471357 0.248032 0.885326 0.227019
H16   H     H_    0.299915 0.268391 0.130863 0.205302
H17   H     H_    0.472201 0.244802 0.127090 0.212217
H18   H     H_    0.195445 0.805957 0.438689 0.100518
H19   H     H_    0.109752 0.534129 0.137255 0.128768
H20   H     H_    0.233950 0.658890 0.967621 0.129789
H21   H     H_    0.111629 0.381881 0.670606 0.159485
H22   H     H_    0.896769 0.477772 0.863999 0.142484
H23   H     H_    0.783178 0.340405 0.030724 0.155007
N1    N     N_R   0.499160 0.499140 0.142800 -0.113734
N2    N     N_R   0.499160 0.499180 0.857150 -0.105433
O1    O     O_R   0.500020 0.316790 0.614690 -0.611517
O2    O     O_R   0.500000 0.316760 0.385350 -0.635348
O3    O     O_R   0.316770 0.500030 0.614670 -0.627788
O4    O     O_R   0.316750 0.499990 0.385330 -0.626147
O5    O     O_R   0.500000 0.683240 0.614650 -0.632761
O6    O     O_R   0.499980 0.683210 0.385310 -0.594310
O7    O     O_R   0.683250 0.500010 0.614670 -0.618953
O8    O     O_R   0.683230 0.499970 0.385330 -0.563745
Zn1   Zn    Zn3+2 0.500010 0.500020 0.653130 0.954666
Zn2   Zn    Zn3+2 0.499990 0.499980 0.346870 0.985180
S1    S     S_3+6 0.869102 0.706924 0.300431 -0.023980
O9    O     O_2   0.741122 0.735291 0.348742 -0.342116
O10   O     O_2   0.943749 0.827268 0.297988 -0.326068
O11   O     O_3   0.864068 0.651781 0.142375 -0.614587
H24   H     H_    0.859839 0.726590 0.081766 0.368345

loop_
_geom_bond_atom_site_label_1
_geom_bond_atom_site_label_2
_ccdc_geom_bond_type
N2    Zn1   S    
C16   C21   A    
C35   C36   A    
C1    O1    A    
C7    C8    A    
C25   C28   A    
C26   C27   A    
C24   H9    S    
C23   O5    A    
C28   C29   S    
C34   C35   A    
C5    C6    A    
C12   O3    A    
C33   H18   S    
C18   C19   A    
O1    Zn1   S    
C2    C32   A    
C9    H22   S    
C23   O6    A    
O8    Zn2   S    
C27   N2    A    
C22   H8    S    
C19   C20   A    
C16   C17   A    
C25   N1    A    
O3    Zn1   S    
C9    C10   A    
C19   H6    S    
C28   N2    A    
C16   C24   S    
C13   C14   A    
C32   H12   S    
C6    H21   S    
C31   O7    A    
S1    O11   S    
C1    O2    A    
C17   C18   A    
C29   H14   S    
C7    C12   S    
C30   H17   S    
C5    C15   S    
C35   H19   S    
S1    O10   D    
C3    C8    A    
C18   H5    S    
C4    C5    A    
N1    Zn2   S    
O4    Zn2   S    
C11   H2    S    
O11   H24   S    
C29   C30   S    
C36   H20   S    
C22   H7    S    
C20   C23   S    
C33   C34   A    
C8    C34   S    
C26   H11   S    
O2    Zn2   S    
C22   C24   S    
C3    C4    A    
C29   H15   S    
C2    C36   A    
C25   C30   S    
C30   H16   S    
S1    O9    D    
C6    C7    A    
C12   O4    A    
C1    C17   S    
C24   H10   S    
C32   C33   A    
C3    S1    S    
C9    C15   A    
C11   C13   A    
C2    H1    S    
O5    Zn1   S    
C10   H23   S    
O6    Zn2   S    
C13   H3    S    
C4    C31   S    
C10   C11   A    
C14   H4    S    
C31   O8    A    
C20   C21   A    
O7    Zn1   S    
C14   C15   A    
C21   C22   S    
C26   N1    A    
C27   H13   S    
