data_str_m2_o4_o9_f0_pcu.sym.66
_audit_creation_date              2012-12-10T19:10:06-0500
_audit_creation_method            fapswitch 2.2
_symmetry_space_group_name_H-M    P1
_symmetry_Int_Tables_number       1
_space_group_crystal_system       triclinic
_cell_length_a                    10.793002
_cell_length_b                    10.799601
_cell_length_c                    9.538677
_cell_angle_alpha                 90.048259
_cell_angle_beta                  90.018778
_cell_angle_gamma                 90.165758
_cell_volume                      1111.82418215

loop_
_atom_site_label
_atom_site_type_symbol
_atom_type_description
_atom_site_fract_x
_atom_site_fract_y
_atom_site_fract_z
_atom_type_partial_charge
C1    C     C_R   0.497944 0.262407 0.499768 0.817088
C2    C     C_R   0.836675 0.277813 0.941966 -0.118013
C3    C     C_R   0.768136 0.176882 0.892231 -0.115977
C4    C     C_R   0.262429 0.503155 0.500022 0.809408
C5    C     C_R   0.755684 0.157534 0.747988 -0.129749
C6    C     C_R   0.809616 0.240302 0.653272 -0.088594
C7    C     C_R   0.878220 0.342221 0.702442 0.139599
C8    C     C_R   0.424708 0.062259 0.596135 0.194365
C9    C     C_R   0.491699 0.129159 0.496229 -0.131602
C10   C     C_R   0.545363 0.064943 0.383224 -0.244093
C11   C     C_R   0.547371 0.935861 0.383337 -0.233522
C12   C     C_R   0.240951 0.812284 0.103616 -0.122802
C13   C     C_R   0.496475 0.870497 0.496895 -0.095028
C14   C     C_R   0.429578 0.935301 0.597400 0.082281
C15   C     C_3   0.425563 0.927353 0.753208 -0.550975
C16   C     C_R   0.501174 0.737491 0.499789 0.804877
C17   C     C_3   0.416894 0.068609 0.753095 -0.211302
C18   C     C_R   0.552207 0.595980 0.073695 0.281147
C19   C     C_R   0.436976 0.412486 0.074336 -0.078612
C20   C     C_R   0.436968 0.412609 0.925432 -0.081269
C21   C     C_R   0.551503 0.596406 0.926347 0.257456
C22   C     C_3   0.682528 0.639789 0.919602 -0.500611
C23   C     C_R   0.933410 0.565297 0.398694 -0.241266
C24   C     C_3   0.684079 0.637371 0.078733 -0.523752
C25   C     C_R   0.737618 0.497009 0.500039 0.787979
C26   C     C_R   0.245717 0.839094 0.246775 -0.112246
C27   C     C_R   0.187694 0.760627 0.343052 -0.127159
C28   C     C_R   0.123126 0.655337 0.296143 0.121779
C29   C     C_R   0.117128 0.629752 0.151897 -0.130570
C30   C     C_R   0.176814 0.707678 0.056070 -0.135282
C31   C     C_2   0.293756 0.113631 0.806960 0.358562
C32   C     C_R   0.871588 0.494608 0.499836 -0.082322
C33   C     C_R   0.938405 0.427881 0.601913 -0.012352
C34   C     C_R   0.066760 0.436316 0.602430 -0.208503
C35   C     C_R   0.128518 0.505920 0.500505 -0.090313
C36   C     C_R   0.061840 0.572274 0.398277 0.001586
C37   C     C_R   0.892941 0.359426 0.847517 -0.151964
Cu1   Cu    Cu3+1 0.499990 0.499980 0.640670 0.953105
Cu2   Cu    Cu3+1 0.500010 0.500020 0.359330 0.947627
H1    H     H_    0.286574 0.873051 0.029858 0.113929
H2    H     H_    0.387786 0.340310 0.129976 0.139433
H3    H     H_    0.294229 0.920834 0.283065 0.143636
H4    H     H_    0.387529 0.341152 0.869465 0.150013
H5    H     H_    0.745560 0.570799 0.871673 0.226597
H6    H     H_    0.690193 0.734754 0.875557 0.187233
H7    H     H_    0.746905 0.565318 0.121504 0.214073
H8    H     H_    0.694455 0.730735 0.126427 0.186131
H9    H     H_    0.192624 0.782009 0.453905 0.111228
H10   H     H_    0.067616 0.548954 0.114106 0.115947
H11   H     H_    0.173155 0.687146 0.945035 0.131222
H12   H     H_    0.725310 0.113267 0.965388 0.112672
H13   H     H_    0.881344 0.618960 0.322976 0.146440
H14   H     H_    0.119060 0.384204 0.679297 0.195873
H15   H     H_    0.946558 0.436810 0.887269 0.111985
H16   H     H_    0.846738 0.292487 0.053674 0.126573
H17   H     H_    0.272666 0.104758 0.917698 0.058837
H18   H     H_    0.704460 0.078251 0.709388 0.127665
H19   H     H_    0.799042 0.224335 0.541766 0.099298
H20   H     H_    0.591178 0.114097 0.298808 0.161783
H21   H     H_    0.593518 0.887815 0.298503 0.155764
H22   H     H_    0.340802 0.878113 0.789220 0.194677
H23   H     H_    0.513783 0.892585 0.798516 0.191576
H24   H     H_    0.497248 0.115571 0.802925 0.132425
N1    N     N_R   0.500790 0.500930 0.147930 -0.183097
N2    N     N_R   0.500790 0.500890 0.852020 -0.183219
O1    O     O_R   0.500000 0.319640 0.618810 -0.575986
O2    O     O_R   0.500010 0.319680 0.381230 -0.592039
O3    O     O_R   0.319640 0.499990 0.618790 -0.584144
O4    O     O_R   0.319650 0.500030 0.381210 -0.568621
O5    O     O_R   0.499990 0.680320 0.618770 -0.582033
O6    O     O_R   0.500000 0.680360 0.381190 -0.579234
O7    O     O_R   0.680350 0.499970 0.618790 -0.575426
O8    O     O_R   0.680360 0.500010 0.381210 -0.589947
O9    O     O_2   0.217649 0.160561 0.728704 -0.560250

loop_
_geom_bond_atom_site_label_1
_geom_bond_atom_site_label_2
_ccdc_geom_bond_type
C27   H9    S    
Cu1   O5    S    
C18   C21   A    
C6    H19   S    
C35   C36   A    
C29   H10   S    
Cu2   N1    S    
C26   C27   A    
C18   C24   S    
C28   C29   A    
C2    H16   S    
C5    C6    A    
C34   C35   A    
C22   H5    S    
Cu1   O1    S    
C8    C9    A    
C31   H17   S    
C9    C10   A    
C21   N2    A    
C25   C32   S    
C30   H11   S    
C4    C35   S    
C13   C14   A    
C7    C33   S    
C16   O6    A    
C4    O4    A    
C33   C34   A    
Cu2   O4    S    
Cu1   O7    S    
C20   N2    A    
C16   O5    A    
C4    O3    A    
C3    H12   S    
C31   O9    D    
C12   C26   A    
C7    C37   A    
C12   H1    S    
C29   C30   A    
Cu1   N2    S    
C19   N1    A    
C1    O1    A    
C15   H22   S    
C1    C9    S    
C25   O7    A    
C37   H15   S    
Cu1   O3    S    
C17   C31   S    
C22   C24   S    
C11   H21   S    
C20   H4    S    
C26   H3    S    
C15   C17   S    
C8    C14   A    
C12   C30   A    
C24   H8    S    
Cu2   O2    S    
C3    C5    A    
C6    C7    A    
C8    C17   S    
C5    H18   S    
C24   H7    S    
C23   C32   A    
C19   C20   A    
C2    C3    A    
C32   C33   A    
C11   C13   A    
C2    C37   A    
C18   N1    A    
C23   H13   S    
Cu1   Cu2   S    
C1    O2    A    
C15   H23   S    
C10   H20   S    
C25   O8    A    
Cu2   O8    S    
C10   C11   A    
C22   H6    S    
C28   C36   S    
C34   H14   S    
C23   C36   A    
C13   C16   S    
C27   C28   A    
Cu2   O6    S    
C14   C15   S    
C21   C22   S    
C17   H24   S    
C19   H2    S    
