data_str_m4_o1_o15_f0_acs.sym.7
_audit_creation_date              2012-12-11T14:46:14-0500
_audit_creation_method            fapswitch 2.2
_symmetry_space_group_name_H-M    P1
_symmetry_Int_Tables_number       1
_space_group_crystal_system       triclinic
_cell_length_a                    11.011398
_cell_length_b                    11.076839
_cell_length_c                    18.741228
_cell_angle_alpha                 90.327383
_cell_angle_beta                  89.911578
_cell_angle_gamma                 120.247571
_cell_volume                      1974.65180527

loop_
_atom_site_label
_atom_site_type_symbol
_atom_type_description
_atom_site_fract_x
_atom_site_fract_y
_atom_site_fract_z
_atom_type_partial_charge
C1    C     C_R   0.864639 0.642461 0.602711 0.583706
C2    C     C_R   0.966234 0.184459 0.718267 -0.008229
C3    C     C_R   0.971049 0.182075 0.793818 -0.024626
C4    C     C_R   0.268895 0.631196 0.604447 0.616091
C5    C     C_R   0.779696 0.244247 0.730277 0.004640
C6    C     C_R   0.807527 0.260031 0.804096 0.002746
C7    C     C_R   0.673520 0.271303 0.706910 -0.098775
C8    C     C_R   0.624630 0.338131 0.750806 -0.155553
C9    C     C_R   0.673199 0.374374 0.820354 -0.111791
C10   C     C_R   0.761488 0.332167 0.847789 -0.082240
C11   C     C_R   0.860357 0.205650 0.684641 -0.002513
C12   C     C_R   0.278330 0.551755 0.794631 -0.200761
C13   C     C_R   0.682362 0.623487 0.694762 -0.007655
C14   C     C_R   0.660174 0.639502 0.768055 -0.185766
C15   C     C_R   0.774954 0.725955 0.812424 -0.026543
C16   C     C_R   0.865748 0.236762 0.606640 0.564971
C17   C     C_R   0.902185 0.815950 0.780543 -0.079187
C18   C     C_R   0.929465 0.796800 0.711219 -0.000667
C19   C     C_R   0.822162 0.687243 0.668960 0.023463
C20   C     C_R   0.248365 0.543651 0.275988 -0.136954
C21   C     C_R   0.261803 0.558882 0.203266 -0.152869
C22   C     C_R   0.338900 0.691939 0.174392 -0.007641
C23   C     C_R   0.266057 0.541267 0.722012 -0.199551
C24   C     C_R   0.392118 0.810941 0.218606 -0.100021
C25   C     C_R   0.377648 0.796982 0.292761 -0.024126
C26   C     C_R   0.307210 0.660893 0.321383 -0.012478
C27   C     C_R   0.807823 0.294562 0.267039 -0.090377
C28   C     C_R   0.867637 0.637715 0.396620 0.527796
C29   C     C_R   0.797629 0.260013 0.195296 -0.105665
C30   C     C_R   0.857696 0.182584 0.169513 0.010603
C31   C     C_R   0.938618 0.151033 0.214950 -0.143030
C32   C     C_R   0.949492 0.186560 0.286741 -0.140061
C33   C     C_R   0.880251 0.254748 0.313379 0.022923
C34   C     C_R   0.308760 0.659157 0.679540 0.011491
C35   C     C_R   0.957108 0.720993 0.278297 -0.143000
C36   C     C_R   0.943531 0.718429 0.205693 -0.159359
C37   C     C_R   0.811038 0.644815 0.174526 0.004408
C38   C     C_R   0.690762 0.557027 0.217097 -0.008372
C39   C     C_R   0.703686 0.566067 0.292202 -0.054675
C40   C     C_R   0.269217 0.632642 0.396032 0.520360
C41   C     C_R   0.838662 0.649003 0.322167 -0.022217
C42   C     C_R   0.813155 0.110853 0.898752 0.512786
C43   C     C_R   0.391573 0.699719 0.897862 0.544389
C44   C     C_R   0.770678 0.735033 0.890971 0.556934
C45   C     C_R   0.873509 0.195513 0.834286 -0.033778
C46   C     C_R   0.809711 0.109688 0.101453 0.538968
C47   C     C_R   0.395097 0.705120 0.103192 0.537591
C48   C     C_R   0.797086 0.691818 0.103882 0.560158
C49   C     C_R   0.886888 0.290098 0.388638 0.546841
C50   C     C_R   0.354727 0.790379 0.711861 0.041027
C51   C     C_R   0.348486 0.795712 0.787541 0.260309
C52   C     C_R   0.327236 0.679899 0.827568 0.042648
C53   C     C_2   0.415713 0.918409 0.667191 0.235985
C54   C     C_2   0.559226 0.544035 0.647293 0.230583
C55   C     C_2   0.075587 0.893019 0.688350 0.243965
C56   C     C_R   0.084678 0.187502 0.829402 -0.082950
C57   C     C_3   0.457845 0.026338 0.821401 -0.015755
C58   C     C_2   0.443498 0.923591 0.339021 0.249376
C59   C     C_2   0.552305 0.458663 0.184526 0.321682
C60   C     C_2   0.579568 0.491170 0.340184 0.231208
C61   C     C_2   0.327178 0.249099 0.833381 0.206282
C62   C     C_R   0.198576 0.201599 0.792329 0.046393
C63   C     C_R   0.194458 0.195599 0.717878 -0.149915
C64   C     C_R   0.073921 0.175054 0.681328 -0.135499
Cr1   Cr    Cr6+3 0.791660 0.390250 0.499930 1.089455
Cr2   Cr    Cr6+3 0.098520 0.708290 0.500540 1.045805
Cr3   Cr    Cr6+3 0.109770 0.401430 0.499480 1.040994
Cr4   Cr    Cr6+3 0.874790 0.925890 0.000070 1.051443
Cr5   Cr    Cr6+3 0.574120 0.948670 0.999300 1.054215
Cr6   Cr    Cr6+3 0.551420 0.625320 0.000920 1.067678
H1    H     H_    0.541554 0.352431 0.731139 0.080596
H2    H     H_    0.735431 0.286230 0.160898 0.182745
H3    H     H_    0.985005 0.090532 0.196306 0.151536
H4    H     H_    0.008048 0.156565 0.321612 0.155473
H5    H     H_    0.062680 0.778988 0.299971 0.168035
H6    H     H_    0.036925 0.781338 0.174056 0.155949
H7    H     H_    0.254987 0.460884 0.825337 0.144063
H8    H     H_    0.223579 0.439699 0.698645 0.164755
H9    H     H_    0.283219 0.205025 0.688133 0.108655
H10   H     H_    0.096670 0.205349 0.886563 0.165250
H11   H     H_    0.071939 0.158691 0.624587 0.148473
H12   H     H_    0.615385 0.232738 0.658131 0.172189
H13   H     H_    0.790928 0.352204 0.903629 0.140941
H14   H     H_    0.404448 0.006707 0.680993 0.132866
H15   H     H_    0.456575 0.476410 0.670082 0.088552
H16   H     H_    0.099417 0.944032 0.636865 0.128059
H17   H     H_    0.551494 0.022077 0.802427 0.094812
H18   H     H_    0.478405 0.072108 0.875697 0.218389
H19   H     H_    0.438670 0.095491 0.787524 0.147741
H20   H     H_    0.452556 0.914772 0.396112 0.146146
H21   H     H_    0.457355 0.453864 0.204210 0.141168
H22   H     H_    0.577205 0.538790 0.390564 0.146464
H23   H     H_    0.634137 0.424416 0.855144 0.166064
H24   H     H_    0.416869 0.347180 0.819672 0.071197
H25   H     H_    0.555577 0.583767 0.790370 0.108655
H26   H     H_    0.986279 0.899129 0.811258 0.209691
H27   H     H_    0.190606 0.438697 0.296814 0.157592
H28   H     H_    0.219755 0.466146 0.169881 0.144498
H29   H     H_    0.454309 0.914203 0.195839 0.190077
H30   H     H_    0.756062 0.348899 0.286859 0.167207
O1    O     O_R   0.766500 0.250040 0.579790 -0.501219
O2    O     O_R   0.413330 0.603360 0.920440 -0.541163
O3    O     O_R   0.676110 0.626250 0.926750 -0.505861
O4    O     O_R   0.798570 0.516780 0.574780 -0.462372
O5    O     O_R   0.895350 0.809870 0.080950 -0.514286
O6    O     O_R   0.872490 0.049760 0.073800 -0.503841
O7    O     O_R   0.691680 0.088070 0.079070 -0.505713
O8    O     O_R   0.451720 0.825250 0.074050 -0.498431
O9    O     O_R   0.413580 0.606370 0.080960 -0.512028
O10   O     O_R   0.676340 0.629040 0.075550 -0.461715
O11   O     O_3   0.666780 0.833290 0.000090 -0.291913
O12   O     O_R   0.218690 0.701900 0.425960 -0.513139
O13   O     O_R   0.984000 0.732950 0.581090 -0.551411
O14   O     O_R   0.218600 0.700890 0.574760 -0.467802
O15   O     O_R   0.249390 0.515350 0.579940 -0.511549
O16   O     O_R   0.982790 0.280900 0.573700 -0.518011
O17   O     O_R   0.766600 0.251130 0.419260 -0.461380
O18   O     O_R   0.798660 0.517790 0.425980 -0.507350
O19   O     O_R   0.984100 0.734040 0.420570 -0.514341
O20   O     O_2   0.483552 0.927505 0.613818 -0.511057
O21   O     O_2   0.569652 0.556521 0.582551 -0.483556
O22   O     O_2   0.172039 0.922998 0.729417 -0.514784
O23   O     O_R   0.249490 0.516440 0.419420 -0.501788
O24   O     O_3   0.333787 0.896901 0.823348 -0.504574
O25   O     O_2   0.489677 0.040021 0.313754 -0.470850
O26   O     O_2   0.543181 0.378942 0.136819 -0.487108
O27   O     O_2   0.482554 0.374453 0.325849 -0.485978
O28   O     O_2   0.327495 0.189450 0.887893 -0.500162
O29   O     O_R   0.982880 0.281910 0.424890 -0.508427
O30   O     O_3   0.999980 0.499990 0.499980 -0.298656
O31   O     O_R   0.895110 0.806860 0.920430 -0.492308
O32   O     O_R   0.872260 0.046970 0.925000 -0.526420
O33   O     O_R   0.691430 0.085060 0.918550 -0.543450
O34   O     O_R   0.451490 0.822460 0.925250 -0.472507

loop_
_geom_bond_atom_site_label_1
_geom_bond_atom_site_label_2
_ccdc_geom_bond_type
C48   O10   A    
Cr5   O34   S    
C6    C45   A    
C27   C29   A    
C24   H29   S    
C10   H13   S    
C4    O15   A    
C35   C36   A    
Cr1   O1    S    
Cr1   O30   S    
Cr5   O7    S    
C53   O20   D    
C7    C8    A    
C39   C41   A    
C63   H9    S    
C27   C33   A    
C44   O31   A    
C12   C23   A    
C35   H5    S    
C62   C63   A    
C57   H19   S    
C42   O33   A    
C4    O14   A    
C36   C37   A    
Cr2   O13   S    
C37   C38   A    
C15   C44   S    
C5    C11   A    
C32   H4    S    
C30   C31   A    
C43   C52   S    
C31   H3    S    
C33   C49   S    
C28   C41   S    
C18   C19   A    
C3    C56   A    
Cr4   O32   S    
Cr3   O15   S    
Cr6   O10   S    
Cr5   O8    S    
C49   O17   A    
C20   H27   S    
C48   O5    A    
C8    C9    A    
Cr1   O18   S    
C36   H6    S    
C9    C10   A    
C29   H2    S    
C22   C47   S    
C55   O22   D    
C13   C14   A    
C46   O7    A    
C51   O24   S    
Cr3   O29   S    
Cr4   O6    S    
C2    C11   A    
C16   O16   A    
C12   C52   A    
C44   O3    A    
C2    C64   A    
C50   C51   A    
C60   H22   S    
C38   C39   A    
C4    C34   S    
C27   H30   S    
C34   C50   A    
C50   C53   S    
C1    C19   S    
C13   C19   A    
C51   C52   A    
C24   C25   A    
C40   O12   A    
C5    C7    A    
Cr6   O3    S    
C25   C26   A    
C47   O9    A    
C49   O29   A    
C3    C45   A    
C57   H17   S    
C59   O26   D    
C42   C45   S    
C43   O34   A    
Cr3   O16   S    
C29   C30   A    
Cr6   O9    S    
C11   C16   S    
C31   C32   A    
C23   C34   A    
C12   H7    S    
C17   C18   A    
C17   H26   S    
C59   H21   S    
C37   C48   S    
C58   H20   S    
C1    O4    A    
C18   C55   S    
C54   O21   D    
Cr2   O19   S    
C53   H14   S    
C56   C62   A    
Cr3   O30   S    
C25   C58   S    
C9    H23   S    
C14   H25   S    
C13   C54   S    
C15   C17   A    
C40   O23   A    
C8    H1    S    
Cr5   O33   S    
Cr2   O14   S    
C61   H24   S    
C30   C46   S    
C60   O27   D    
C63   C64   A    
C28   O19   A    
Cr3   O23   S    
C6    C10   A    
C54   H15   S    
Cr6   O2    S    
Cr4   O31   S    
C56   H10   S    
C57   H18   S    
C32   C33   A    
C55   H16   S    
C2    C3    A    
C43   O2    A    
C28   O18   A    
C57   O24   S    
C21   H28   S    
Cr5   O11   S    
C26   C40   S    
C5    C6    A    
C20   C26   A    
C39   C60   S    
C46   O6    A    
C61   O28   D    
C22   C24   A    
C1    O13   A    
C23   H8    S    
C61   C62   S    
C35   C41   A    
C64   H11   S    
Cr6   O11   S    
C38   C59   S    
C16   O1    A    
C7    H12   S    
C20   C21   A    
C58   O25   D    
C47   O8    A    
Cr4   O5    S    
Cr1   O17   S    
C14   C15   A    
C42   O32   A    
Cr1   O4    S    
Cr2   O12   S    
C21   C22   A    
Cr4   O11   S    
Cr2   O30   S    
