data_str_m2_o1_o16_f0_pcu.sym.15
_audit_creation_date              2012-10-26T20:06:01-0400
_audit_creation_method            fapswitch 2.2
_symmetry_space_group_name_H-M    P1
_symmetry_Int_Tables_number       1
_space_group_crystal_system       triclinic
_cell_length_a                    9.572478
_cell_length_b                    10.867297
_cell_length_c                    13.548096
_cell_angle_alpha                 89.861722
_cell_angle_beta                  73.202097
_cell_angle_gamma                 91.162077
_cell_volume                      1348.9017548

loop_
_atom_site_label
_atom_site_type_symbol
_atom_type_description
_atom_site_fract_x
_atom_site_fract_y
_atom_site_fract_z
_atom_type_partial_charge
C1    C     C_R   0.502141 0.737486 0.497984 0.551935
C2    C     C_R   0.376357 0.500213 0.814682 -0.041475
C3    C     C_R   0.625298 0.938632 0.505140 -0.150532
C4    C     C_R   0.422281 0.503873 0.700069 0.535107
C5    C     C_R   0.622242 0.066102 0.505555 -0.174928
C6    C     C_R   0.497472 0.127347 0.498580 0.030360
C7    C     C_R   0.374718 0.058274 0.490720 0.259934
C8    C     C_R   0.383329 0.931037 0.483066 -0.114224
C9    C     C_R   0.504892 0.870842 0.494677 -0.022110
C10   C     C_R   0.908014 0.590574 0.548540 0.026122
C11   C     C_R   0.056381 0.590639 0.548449 0.025212
C12   C     C_R   0.436150 0.503871 0.979364 -0.019074
C13   C     C_R   0.093422 0.412155 0.448107 0.008790
C14   C     C_R   0.944957 0.412152 0.448199 0.005502
C15   C     C_R   0.498667 0.261920 0.499905 0.572238
C16   C     C_R   0.577508 0.503309 0.300762 0.560964
C17   C     C_R   0.798907 0.557987 0.024974 -0.046084
C18   C     C_R   0.619682 0.515577 0.188523 0.005319
C19   C     C_R   0.244940 0.437796 0.864536 -0.105328
C20   C     C_R   0.209352 0.406042 0.968614 0.217414
C21   C     C_R   0.303597 0.439443 0.025558 -0.114591
C22   C     C_3   0.133325 0.083422 0.575309 -0.006465
C23   C     C_R   0.471205 0.537117 0.873446 -0.030104
C24   C     C_3   0.989725 0.078922 0.548609 -0.385174
C25   C     C_3   0.833452 0.418735 0.769880 0.002435
C26   C     C_3   0.976959 0.358261 0.718835 -0.357259
C27   C     C_R   0.542380 0.524785 0.032589 -0.009382
C28   C     C_R   0.688398 0.553585 0.975840 0.065933
C29   C     C_R   0.721885 0.574087 0.869964 0.242461
C30   C     C_R   0.608101 0.593878 0.827222 -0.115904
C31   C     C_R   0.509892 0.510148 0.139281 -0.127032
C32   C     C_R   0.764663 0.538880 0.130987 -0.083964
Cu1   Cu    Cu3+1 0.359340 0.499980 0.500000 0.952404
Cu2   Cu    Cu3+1 0.640660 0.500020 0.500000 0.938473
H1    H     H_    0.850634 0.545471 0.168104 0.166587
H2    H     H_    0.176029 0.403564 0.820450 0.155201
H3    H     H_    0.276649 0.404139 0.103382 0.135745
H4    H     H_    0.637425 0.633072 0.750795 0.146778
H5    H     H_    0.721263 0.893504 0.513317 0.132709
H6    H     H_    0.130443 0.154297 0.634280 0.149685
H7    H     H_    0.143273 0.992930 0.611467 0.114687
H8    H     H_    0.989432 0.001616 0.495193 0.152274
H9    H     H_    0.897724 0.064856 0.619866 0.100982
H10   H     H_    0.974521 0.166009 0.510792 0.147272
H11   H     H_    0.772931 0.425563 0.711527 0.166767
H12   H     H_    0.717138 0.116726 0.512691 0.134738
H13   H     H_    0.769607 0.355826 0.832938 0.165664
H14   H     H_    0.003084 0.290532 0.771860 0.160642
H15   H     H_    0.967858 0.308944 0.649599 0.097572
H16   H     H_    0.065732 0.427824 0.694934 0.210594
H17   H     H_    0.194977 0.156361 0.048422 0.340202
H18   H     H_    0.291162 0.879521 0.471639 0.139604
H19   H     H_    0.838098 0.662722 0.588374 0.109361
H20   H     H_    0.096713 0.662416 0.588868 0.125389
H21   H     H_    0.164191 0.341373 0.406652 0.161427
H22   H     H_    0.904968 0.341490 0.406554 0.141906
H23   H     H_    0.911238 0.578562 0.981753 0.170137
H24   H     H_    0.398186 0.497982 0.185711 0.134601
N1    N     N_R   0.147940 0.499970 0.499970 -0.247822
N2    N     N_R   0.852060 0.500060 0.499990 -0.242059
O1    O     O_R   0.381250 0.680340 0.500010 -0.516864
O2    O     O_3   0.855643 0.538052 0.806716 -0.576634
O3    O     O_2   0.997869 0.330486 0.136798 -0.309692
O4    O     O_2   0.944373 0.316224 0.970788 -0.276814
O5    O     O_3   0.121149 0.159340 0.010181 -0.490521
O6    O     O_R   0.618820 0.680370 0.500010 -0.512075
O7    O     O_R   0.323240 0.499950 0.650980 -0.515792
O8    O     O_R   0.560810 0.499980 0.650980 -0.525923
O9    O     O_R   0.381180 0.319630 0.499990 -0.459400
O10   O     O_R   0.618750 0.319660 0.499990 -0.523974
O11   O     O_R   0.439190 0.500020 0.349020 -0.508196
O12   O     O_R   0.676760 0.500050 0.349020 -0.486466
O13   O     O_3   0.248382 0.113908 0.485616 -0.548603
S1    S     S_3+6 0.061060 0.304358 0.023920 -0.016661

loop_
_geom_bond_atom_site_label_1
_geom_bond_atom_site_label_2
_ccdc_geom_bond_type
C4    O7    A    
C14   H22   S    
C32   H1    S    
C29   C30   A    
C3    C9    A    
O3    S1    D    
Cu1   O9    S    
C24   H8    S    
C5    H12   S    
C25   H13   S    
C2    C4    S    
C19   C20   A    
C16   O12   A    
C26   H14   S    
C19   H2    S    
C22   H6    S    
Cu2   O6    S    
C1    O6    A    
C25   C26   S    
C20   S1    S    
C7    C8    A    
Cu1   N1    S    
C16   C18   S    
C13   C14   A    
Cu2   N2    S    
C11   H20   S    
C12   C23   A    
C30   H4    S    
C6    C7    A    
C16   O11   A    
C25   H11   S    
C13   N1    A    
C12   C21   A    
C31   H24   S    
Cu1   O1    S    
C28   C29   A    
C24   H10   S    
Cu1   Cu2   S    
C25   O2    S    
C26   H16   S    
C5    C6    A    
C15   O9    A    
C22   C24   S    
C22   H7    S    
C18   C32   A    
C10   C11   A    
Cu1   O11   S    
C12   C27   A    
C3    H5    S    
C15   O10   A    
C23   C30   A    
Cu2   O12   S    
C2    C23   A    
C14   N2    A    
C20   C21   A    
Cu1   O7    S    
C21   H3    S    
C7    O13   S    
H17   O5    S    
C26   H15   S    
Cu2   O8    S    
C27   C28   A    
C4    O8    A    
C24   H9    S    
C8    H18   S    
C10   N2    A    
C10   H19   S    
O4    S1    D    
C18   C31   A    
O5    S1    S    
C22   O13   S    
C3    C5    A    
C6    C15   S    
C29   O2    S    
C17   C28   A    
C27   C31   A    
Cu2   O10   S    
C11   N1    A    
C1    C9    S    
C17   C32   A    
C2    C19   A    
C17   H23   S    
C8    C9    A    
C13   H21   S    
C1    O1    A    
