data_str_m2_o13_o17_f0_pcu.sym.76
_audit_creation_date              2012-10-26T20:19:16-0400
_audit_creation_method            fapswitch 2.2
_symmetry_space_group_name_H-M    P1
_symmetry_Int_Tables_number       1
_space_group_crystal_system       triclinic
_cell_length_a                    15.005018
_cell_length_b                    13.021217
_cell_length_c                    11.824155
_cell_angle_alpha                 101.109335
_cell_angle_beta                  91.979066
_cell_angle_gamma                 94.299118
_cell_volume                      2257.74264617

loop_
_atom_site_label
_atom_site_type_symbol
_atom_type_description
_atom_site_fract_x
_atom_site_fract_y
_atom_site_fract_z
_atom_type_partial_charge
C1    C     C_R   0.497314 0.298668 0.476812 0.530601
C2    C     C_R   0.508264 0.884114 0.645537 -0.020397
C3    C     C_R   0.536120 0.134453 0.539432 -0.019439
C4    C     C_R   0.439906 0.855885 0.450313 -0.024700
C5    C     C_R   0.509038 0.029313 0.543760 0.022117
C6    C     C_R   0.454895 0.965590 0.453191 0.025265
C7    C     C_R   0.408080 0.405963 0.028324 -0.192541
C8    C     C_R   0.594132 0.590605 0.971072 -0.194595
C9    C     C_R   0.417058 0.415878 0.147781 0.013451
C10   C     C_R   0.584610 0.581503 0.851823 0.022752
C11   C     C_R   0.544895 0.537370 0.153768 0.142525
C12   C     C_R   0.493269 0.700225 0.523509 0.537937
C13   C     C_R   0.456125 0.461110 0.845932 0.143983
C14   C     C_R   0.535659 0.531817 0.031561 0.009424
C15   C     C_R   0.465978 0.465672 0.967988 0.009634
C16   C     C_R   0.329064 0.499439 0.501159 0.532999
C17   C     C_R   0.670920 0.500507 0.498692 0.543216
C18   C     C_R   0.819905 0.567781 0.585474 -0.152164
C19   C     C_R   0.180178 0.432084 0.413248 -0.148681
C20   C     C_R   0.767528 0.501548 0.497125 -0.018088
C21   C     C_R   0.232439 0.498416 0.502010 -0.013671
C22   C     C_R   0.807039 0.434706 0.410398 -0.152743
C23   C     C_R   0.032185 0.364132 0.320040 0.000604
C24   C     C_R   0.192890 0.565848 0.588049 -0.146350
C25   C     C_R   0.899782 0.434394 0.410250 -0.010955
C26   C     C_R   0.100232 0.566176 0.587730 -0.001963
C27   C     C_R   0.953355 0.500909 0.499146 0.036283
C28   C     C_R   0.046627 0.499198 0.498812 0.039282
C29   C     C_R   0.913408 0.568616 0.588478 0.020962
C30   C     C_R   0.086529 0.431025 0.409732 0.012574
C31   C     C_R   0.938791 0.367416 0.322518 -0.122063
C32   C     C_R   0.061023 0.632987 0.675454 -0.131077
C33   C     C_3   0.074642 0.290698 0.223661 -0.256591
C34   C     C_R   0.968047 0.635005 0.677677 0.000120
C35   C     C_3   0.009421 0.222993 0.130557 -0.302595
C36   C     C_3   0.059089 0.152586 0.039782 -0.463570
C37   C     C_3   0.930148 0.707950 0.776778 -0.254862
C38   C     C_3   0.893697 0.646802 0.866319 -0.294682
C39   C     C_3   0.846845 0.717811 0.959418 -0.468943
C40   C     C_3   0.373939 0.786662 0.360447 -0.237449
C41   C     C_3   0.412342 0.760692 0.240082 -0.278845
C42   C     C_3   0.345668 0.689102 0.154084 -0.447309
C43   C     C_3   0.619099 0.190437 0.611709 -0.249920
C44   C     C_3   0.694067 0.219479 0.535416 -0.288250
C45   C     C_R   0.479438 0.813865 0.540927 0.000105
C46   C     C_3   0.777947 0.268944 0.608538 -0.448621
C47   C     C_3   0.508818 0.856565 0.764642 -0.234854
C48   C     C_3   0.604064 0.860456 0.817748 -0.290288
C49   C     C_3   0.602245 0.861718 0.947135 -0.470554
C50   C     C_3   0.388616 0.168669 0.275413 -0.241598
C51   C     C_3   0.328735 0.093673 0.181588 -0.324317
C52   C     C_3   0.296941 0.149980 0.087744 -0.473148
C53   C     C_3   0.377687 0.390376 0.781058 -0.207471
C54   C     C_3   0.287899 0.438741 0.804979 -0.305096
C55   C     C_3   0.209492 0.365291 0.743587 -0.452816
C56   C     C_R   0.490173 0.182956 0.459773 0.006360
C57   C     C_3   0.623193 0.608487 0.218773 -0.213866
C58   C     C_3   0.713153 0.560283 0.196943 -0.299481
C59   C     C_3   0.790674 0.633661 0.261003 -0.454451
C60   C     C_R   0.416355 0.013142 0.368949 -0.126607
C61   C     C_R   0.526589 0.989865 0.643156 -0.136598
C62   C     C_R   0.432093 0.120671 0.370152 -0.032813
Cu1   Cu    Cu3+1 0.506660 0.507730 0.615930 0.887187
Cu2   Cu    Cu3+1 0.493340 0.492270 0.384070 0.881088
H1    H     H_    0.786267 0.618506 0.650839 0.114472
H2    H     H_    0.103309 0.683207 0.743467 0.096489
H3    H     H_    0.106757 0.200692 0.997357 0.148363
H4    H     H_    0.095930 0.097061 0.080314 0.151144
H5    H     H_    0.010316 0.106385 0.972935 0.137187
H6    H     H_    0.962782 0.171872 0.170911 0.155577
H7    H     H_    0.970433 0.274575 0.086571 0.156588
H8    H     H_    0.121063 0.339225 0.179908 0.135525
H9    H     H_    0.114306 0.236976 0.263610 0.138718
H10   H     H_    0.893900 0.784132 0.004519 0.150481
H11   H     H_    0.788969 0.749004 0.920274 0.141254
H12   H     H_    0.213921 0.381254 0.347954 0.100618
H13   H     H_    0.822099 0.671841 0.023273 0.141869
H14   H     H_    0.845308 0.580337 0.824920 0.162557
H15   H     H_    0.949916 0.613839 0.907264 0.159953
H16   H     H_    0.982930 0.768513 0.820586 0.130652
H17   H     H_    0.877858 0.752227 0.743758 0.131306
H18   H     H_    0.328211 0.614701 0.184038 0.175296
H19   H     H_    0.283788 0.728904 0.143939 0.136812
H20   H     H_    0.375654 0.670199 0.068751 0.142270
H21   H     H_    0.430479 0.832390 0.205703 0.138462
H22   H     H_    0.474462 0.721444 0.245330 0.191443
H23   H     H_    0.354170 0.351328 0.985901 0.094250
H24   H     H_    0.351885 0.712644 0.388544 0.173072
H25   H     H_    0.310822 0.825414 0.355675 0.116443
H26   H     H_    0.763957 0.344409 0.664223 0.168464
H27   H     H_    0.801153 0.215116 0.663624 0.139580
H28   H     H_    0.832508 0.284204 0.551489 0.155927
H29   H     H_    0.711205 0.147430 0.475849 0.154977
H30   H     H_    0.672269 0.275486 0.482517 0.173205
H31   H     H_    0.601939 0.260218 0.674131 0.179504
H32   H     H_    0.649188 0.139501 0.664844 0.125035
H33   H     H_    0.577913 0.936451 0.992571 0.147683
H34   H     H_    0.648420 0.644786 0.013197 0.097814
H35   H     H_    0.557121 0.795505 0.964056 0.156964
H36   H     H_    0.670580 0.855585 0.982640 0.131898
H37   H     H_    0.637588 0.791734 0.773903 0.161597
H38   H     H_    0.644399 0.932336 0.805710 0.152364
H39   H     H_    0.471279 0.915387 0.820865 0.125151
H40   H     H_    0.470783 0.781031 0.767246 0.173414
H41   H     H_    0.257952 0.216405 0.125209 0.141553
H42   H     H_    0.355161 0.179776 0.044471 0.147772
H43   H     H_    0.253870 0.094066 0.021795 0.141349
H44   H     H_    0.367045 0.028124 0.139431 0.156470
H45   H     H_    0.765321 0.380921 0.344811 0.103136
H46   H     H_    0.269167 0.061513 0.220786 0.155536
H47   H     H_    0.347674 0.231957 0.316768 0.149581
H48   H     H_    0.443337 0.202966 0.229713 0.176044
H49   H     H_    0.370507 0.967087 0.304181 0.113196
H50   H     H_    0.548064 0.042915 0.723304 0.101807
H51   H     H_    0.218745 0.345389 0.649362 0.161653
H52   H     H_    0.203883 0.291783 0.778331 0.140879
H53   H     H_    0.146338 0.404209 0.757860 0.151336
H54   H     H_    0.275985 0.456476 0.898420 0.145188
H55   H     H_    0.289033 0.514704 0.776088 0.181165
H56   H     H_    0.234487 0.619342 0.654081 0.102812
H57   H     H_    0.384103 0.370579 0.688396 0.212543
H58   H     H_    0.376303 0.311678 0.804337 0.093510
H59   H     H_    0.795722 0.708720 0.229366 0.139558
H60   H     H_    0.780631 0.651192 0.355072 0.164183
H61   H     H_    0.854387 0.596048 0.246218 0.153318
H62   H     H_    0.711219 0.483934 0.224865 0.184014
H63   H     H_    0.726497 0.543149 0.103970 0.144171
H64   H     H_    0.625362 0.686654 0.194123 0.083507
H65   H     H_    0.615829 0.629440 0.311222 0.213674
H66   H     H_    0.632183 0.624462 0.808223 0.124229
H67   H     H_    0.370436 0.371589 0.191383 0.120010
H68   H     H_    0.894817 0.318081 0.256318 0.099823
N1    N     N_R   0.516670 0.519360 0.790130 -0.229847
N2    N     N_R   0.483330 0.480640 0.209870 -0.226165
O1    O     O_R   0.504720 0.354460 0.582000 -0.523603
O2    O     O_R   0.495280 0.645540 0.418000 -0.527027
O3    O     O_R   0.493480 0.341410 0.386200 -0.513443
O4    O     O_R   0.506520 0.658590 0.613800 -0.506443
O5    O     O_R   0.375880 0.506510 0.597910 -0.521169
O6    O     O_R   0.624120 0.493490 0.402090 -0.515221
O7    O     O_R   0.364640 0.493450 0.402110 -0.513306
O8    O     O_R   0.635360 0.506550 0.597890 -0.503623

loop_
_geom_bond_atom_site_label_1
_geom_bond_atom_site_label_2
_ccdc_geom_bond_type
C25   C31   A    
Cu2   O2    S    
C26   C32   A    
C16   C21   S    
C27   C29   A    
C34   C37   S    
C41   C42   S    
C35   C36   S    
C42   H18   S    
C10   N1    A    
Cu2   O7    S    
C57   H64   S    
C36   H3    S    
C53   C54   S    
C18   H1    S    
C41   H22   S    
C3    C43   S    
C37   C38   S    
C39   H13   S    
C57   H65   S    
C19   H12   S    
C19   C21   A    
C1    C56   S    
C24   C26   A    
C53   H58   S    
C55   H53   S    
C38   C39   S    
C11   C14   A    
C46   H28   S    
C38   H15   S    
C17   C20   S    
C60   C62   A    
C39   H10   S    
C8    H34   S    
C44   H29   S    
C33   H8    S    
C7    H23   S    
C4    C40   S    
C35   H6    S    
C51   H44   S    
C23   C33   S    
C22   C25   A    
C43   H31   S    
C39   H11   S    
C40   H25   S    
C18   C20   A    
C2    C61   A    
Cu2   O3    S    
C9    N2    A    
C7    C15   A    
C35   H7    S    
C58   H63   S    
C54   H55   S    
C37   H17   S    
C60   H49   S    
Cu1   O5    S    
C44   C46   S    
C43   H32   S    
C13   C53   S    
C4    C45   A    
C9    H67   S    
C2    C45   A    
C59   H59   S    
C37   H16   S    
Cu2   N2    S    
C24   H56   S    
C47   H39   S    
C51   C52   S    
C52   H42   S    
C23   C30   A    
C6    C60   A    
C42   H20   S    
C52   H43   S    
C4    C6    A    
C11   N2    A    
C46   H27   S    
C38   H14   S    
C58   C59   S    
C29   C34   A    
C17   O8    A    
C32   C34   A    
C43   C44   S    
C10   H66   S    
C31   H68   S    
C49   H35   S    
C3    C56   A    
C47   C48   S    
C22   H45   S    
C48   H38   S    
C50   H48   S    
C50   C51   S    
C5    C61   A    
C18   C29   A    
C11   C57   S    
C33   H9    S    
C40   C41   S    
C20   C22   A    
C52   H41   S    
C58   H62   S    
C51   H46   S    
C54   H54   S    
C12   O2    A    
C50   C62   S    
Cu1   O4    S    
C12   O4    A    
C16   O5    A    
C59   H61   S    
Cu1   N1    S    
C27   C28   A    
C1    O3    A    
C36   H5    S    
C32   H2    S    
Cu2   O6    S    
C59   H60   S    
C7    C9    A    
C54   C55   S    
C48   C49   S    
C8    C14   A    
C47   H40   S    
C13   N1    A    
C42   H19   S    
C12   C45   S    
C3    C5    A    
C36   H4    S    
C46   H26   S    
C2    C47   S    
C25   C27   A    
C41   H21   S    
C26   C28   A    
C40   H24   S    
C13   C15   A    
C16   O7    A    
C53   H57   S    
C49   H36   S    
C57   C58   S    
C5    C6    A    
C55   H51   S    
Cu1   O1    S    
C48   H37   S    
C28   C30   A    
C50   H47   S    
C33   C35   S    
Cu1   O8    S    
C17   O6    A    
C56   C62   A    
C44   H30   S    
C49   H33   S    
Cu1   Cu2   S    
C8    C10   A    
C55   H52   S    
C21   C24   A    
C61   H50   S    
C14   C15   A    
C1    O1    A    
C19   C30   A    
C23   C31   A    
