data_str_m3_o10_o17_f0_pcu.sym.195
_audit_creation_date              2012-12-10T16:52:06-0500
_audit_creation_method            fapswitch 2.2
_symmetry_space_group_name_H-M    P1
_symmetry_Int_Tables_number       1
_space_group_crystal_system       triclinic
_cell_length_a                    7.758897
_cell_length_b                    8.428694
_cell_length_c                    14.93458
_cell_angle_alpha                 90.836322
_cell_angle_beta                  84.984373
_cell_angle_gamma                 94.025724
_cell_volume                      970.506642848

loop_
_atom_site_label
_atom_site_type_symbol
_atom_type_description
_atom_site_fract_x
_atom_site_fract_y
_atom_site_fract_z
_atom_type_partial_charge
C1    C     C_R   0.545871 0.793963 0.511319 0.888386
C2    C     C_R   0.454904 0.206411 0.515690 0.874603
C3    C     C_R   0.653850 0.767286 0.944839 -0.017303
C4    C     C_R   0.347652 0.238716 0.055030 -0.005693
C5    C     C_2   0.570545 0.955784 0.542006 -0.228216
C6    C     C_2   0.431899 0.046300 0.549020 -0.238420
C7    C     C_R   0.500143 0.496695 0.672766 0.906911
C8    C     C_R   0.500326 0.506165 0.327385 0.947114
C9    C     C_R   0.420162 0.382994 0.190941 -0.252629
C10   C     C_R   0.584103 0.621218 0.808859 -0.211856
C11   C     C_R   0.501015 0.512397 0.232196 -0.115078
C12   C     C_R   0.499638 0.493166 0.768061 -0.089098
C13   C     C_R   0.581662 0.642742 0.183688 -0.025000
C14   C     C_R   0.413256 0.366793 0.817315 -0.028443
C15   C     C_R   0.580553 0.639391 0.089694 0.064890
C16   C     C_R   0.418133 0.368381 0.910823 0.067992
C17   C     C_R   0.501378 0.504829 0.047011 0.034014
C18   C     C_R   0.499731 0.501721 0.953272 0.031654
C19   C     C_R   0.423684 0.373555 0.098078 0.102176
C20   C     C_R   0.578595 0.632120 0.901908 0.098923
C21   C     C_R   0.658281 0.766754 0.037551 -0.282732
C22   C     C_R   0.341645 0.240305 0.962540 -0.279569
H1    H     H_    0.354110 0.290725 0.233248 0.194278
H2    H     H_    0.652924 0.711782 0.766301 0.193866
H3    H     H_    0.721234 0.869498 0.068496 0.131764
H4    H     H_    0.279658 0.137408 0.931120 0.140581
H5    H     H_    0.013991 0.381403 0.432121 0.190746
H6    H     H_    0.985986 0.618532 0.567922 0.207255
N1    N     N_2   0.950330 0.457950 0.475660 -0.148759
N2    N     N_2   0.049670 0.542050 0.524340 -0.139420
O1    O     O_R   0.389250 0.738570 0.505970 -0.588038
O2    O     O_R   0.610750 0.261430 0.494030 -0.588384
O3    O     O_R   0.678390 0.711620 0.490370 -0.620358
O4    O     O_R   0.321610 0.288380 0.509630 -0.634856
O5    O     O_R   0.355420 0.513510 0.639950 -0.549269
O6    O     O_R   0.644580 0.486490 0.360050 -0.567272
O7    O     O_R   0.644560 0.486560 0.624350 -0.617545
O8    O     O_R   0.355440 0.513440 0.375650 -0.635396
Zn1   Zn    Zn3+2 0.306940 0.517990 0.510420 1.028613
Zn2   Zn    Zn3+2 0.693060 0.482010 0.489580 1.024427
C23   C     C_2   0.656346 0.785088 0.231186 0.358316
H7    H     H_    0.626085 0.903381 0.212968 0.120789
O9    O     O_2   0.755561 0.771956 0.289258 -0.551190
C24   C     C_2   0.323551 0.231952 0.770923 0.379104
H8    H     H_    0.363516 0.112146 0.777446 0.139179
O10   O     O_2   0.200060 0.253576 0.728367 -0.526512
C25   C     C_2   0.725800 0.914662 0.897583 0.414272
H9    H     H_    0.834547 0.983974 0.923129 0.072321
O11   O     O_2   0.658073 0.966283 0.834295 -0.566626
C26   C     C_2   0.274464 0.091288 0.101826 0.383496
H10   H     H_    0.164989 0.023267 0.076143 0.073155
O12   O     O_2   0.341674 0.038121 0.164816 -0.608680
C27   C     C_2   0.749128 0.015072 0.561592 0.476290
H11   H     H_    0.860655 0.959802 0.529251 0.045469
O13   O     O_2   0.772133 0.120277 0.617313 -0.505852
C28   C     C_2   0.254603 0.988376 0.586866 0.490815
H12   H     H_    0.142031 0.044191 0.567554 0.093845
O14   O     O_2   0.234121 0.884832 0.643973 -0.553048

loop_
_geom_bond_atom_site_label_1
_geom_bond_atom_site_label_2
_ccdc_geom_bond_type
C26   O12   D    
C15   C17   A    
N1    N2    D    
C10   C20   A    
C28   O14   D    
H5    N1    S    
C4    C22   A    
C23   H7    S    
C23   O9    D    
C4    C26   S    
O5    Zn1   S    
C25   H9    S    
C13   C15   A    
C1    O1    A    
C2    O4    A    
H6    N2    S    
C17   C18   A    
C7    O7    A    
C1    O3    A    
C3    C20   A    
C25   O11   D    
C16   C18   A    
C27   H11   S    
C24   H8    S    
C9    C11   A    
C2    C6    S    
C8    O8    A    
C8    C11   S    
C1    C5    S    
C10   C12   A    
C2    O2    A    
C3    C25   S    
C17   C19   A    
C12   C14   A    
N2    Zn1   S    
C26   H10   S    
O7    Zn2   S    
C18   C20   A    
C27   O13   D    
C8    O6    A    
C5    C6    D    
C14   C16   A    
C7    C12   S    
C3    C21   A    
O3    Zn2   S    
O4    Zn1   S    
C15   C21   A    
O2    Zn2   S    
O8    Zn1   S    
C28   H12   S    
N1    Zn2   S    
C14   C24   S    
C22   H4    S    
C5    C27   S    
O1    Zn1   S    
C21   H3    S    
C13   C23   S    
C9    H1    S    
O6    Zn2   S    
C16   C22   A    
C24   O10   D    
C10   H2    S    
C4    C19   A    
C7    O5    A    
C11   C13   A    
C9    C19   A    
C6    C28   S    
