data_str_m9_o18_o24_f0_sra.sym.37
_audit_creation_date              2012-12-11T15:31:35-0500
_audit_creation_method            fapswitch 2.2
_symmetry_space_group_name_H-M    P1
_symmetry_Int_Tables_number       1
_space_group_crystal_system       triclinic
_cell_length_a                    6.945052
_cell_length_b                    14.802147
_cell_length_c                    21.37364
_cell_angle_alpha                 74.891585
_cell_angle_beta                  90.229827
_cell_angle_gamma                 90.585742
_cell_volume                      2121.18398203

loop_
_atom_site_label
_atom_site_type_symbol
_atom_type_description
_atom_site_fract_x
_atom_site_fract_y
_atom_site_fract_z
_atom_type_partial_charge
O1    O     O_R   0.648150 0.130050 0.214300 -0.538660
O2    O     O_R   0.351850 0.869950 0.785700 -0.543572
O3    O     O_R   0.320490 0.006660 0.340150 -0.531017
O4    O     O_R   0.679510 0.993340 0.659850 -0.531113
O5    O     O_R   0.146100 0.869940 0.285700 -0.558969
O6    O     O_R   0.853900 0.130060 0.714300 -0.532622
C1    C     C_R   0.489059 0.001366 0.367079 0.762811
C2    C     C_R   0.510664 0.997659 0.633039 0.733863
O7    O     O_R   0.318690 0.137980 0.218120 -0.537540
O8    O     O_R   0.681310 0.862020 0.781880 -0.543029
O9    O     O_R   0.144280 0.002190 0.162800 -0.551143
O10   O     O_R   0.855720 0.997810 0.837200 -0.546853
C3    C     C_R   0.488355 0.175475 0.205126 0.753340
C4    C     C_R   0.511990 0.824632 0.795708 0.738968
O11   O     O_R   0.649960 0.997790 0.337200 -0.530623
O12   O     O_R   0.350040 0.002210 0.662800 -0.536161
O13   O     O_3   0.479300 0.955290 0.231990 -0.378847
O14   O     O_3   0.520700 0.044710 0.768010 -0.376695
V1    V     V_3+5 0.206040 0.008290 0.253340 1.524027
V2    V     V_3+5 0.793960 0.991710 0.746660 1.503687
O15   O     O_R   0.814320 0.993320 0.159850 -0.524101
O16   O     O_R   0.185680 0.006680 0.840150 -0.530045
C5    C     C_R   0.982751 0.998347 0.133054 0.762281
C6    C     C_R   0.016941 0.002475 0.866747 0.748699
O17   O     O_R   0.816120 0.862000 0.281880 -0.527298
O18   O     O_R   0.183880 0.138000 0.718120 -0.548344
C7    C     C_R   0.984627 0.824645 0.295164 0.742430
C8    C     C_R   0.015870 0.175567 0.706154 0.764941
V3    V     V_3+5 0.705540 0.991700 0.246660 1.557505
V4    V     V_3+5 0.294460 0.008300 0.753340 1.495250
O19   O     O_3   0.982150 0.044700 0.268010 -0.369869
O20   O     O_3   0.017850 0.955300 0.731990 -0.372680
C9    C     C_R   0.998307 0.722916 0.322649 -0.145899
C10   C     C_R   0.011039 0.277342 0.677943 -0.158114
C11   C     C_R   0.119828 0.573417 0.314550 -0.108427
C12   C     C_R   0.018995 0.435105 0.691222 -0.107617
C13   C     C_R   0.086232 0.667969 0.285851 -0.093680
C14   C     C_R   0.031119 0.338573 0.718464 -0.076607
C15   C     C_R   0.945388 0.682151 0.388129 -0.048952
C16   C     C_R   0.987976 0.313738 0.610083 -0.037951
C17   C     C_R   0.009229 0.590043 0.419483 0.000185
C18   C     C_R   0.009079 0.411982 0.582243 0.001804
C19   C     C_R   0.085597 0.534860 0.380444 0.093304
C20   C     C_R   0.009393 0.471949 0.624116 0.083047
C21   C     C_R   0.006360 0.551061 0.488336 0.055108
C22   C     C_R   0.033493 0.453160 0.514355 0.063993
C23   C     C_R   0.109600 0.401867 0.473387 -0.201310
C24   C     C_R   0.003410 0.607753 0.532155 -0.187502
C25   C     C_R   0.136027 0.442032 0.407859 -0.183490
C26   C     C_R   0.007676 0.568869 0.598669 -0.156241
H1    H     H_    0.199458 0.400308 0.378580 0.145843
H2    H     H_    0.011717 0.615249 0.630450 0.135217
H3    H     H_    0.181845 0.530193 0.286035 0.169105
H4    H     H_    0.023848 0.482391 0.722347 0.174010
H5    H     H_    0.164981 0.332335 0.492341 0.132852
H6    H     H_    0.015051 0.682989 0.516121 0.139260
C27   C     C_3   0.858341 0.943713 0.986086 -0.356282
C28   C     C_3   0.139714 0.058355 0.013345 -0.364098
C29   C     C_3   0.024742 0.914596 0.035435 0.306116
C30   C     C_3   0.973228 0.087310 0.963882 0.284780
H7    H     H_    0.745173 0.896337 0.975498 0.186269
H8    H     H_    0.253359 0.105661 0.023762 0.158387
C31   C     C_3   0.991838 0.999812 0.062705 -0.128321
C32   C     C_3   0.006497 0.001988 0.936815 -0.157446
C33   C     C_3   0.828810 0.030350 0.012828 0.390632
C34   C     C_3   0.169326 0.971662 0.986615 0.335900
C35   C     C_3   0.681105 0.005073 0.477260 -0.169250
C36   C     C_3   0.317332 0.993049 0.522973 -0.186899
C37   C     C_3   0.583447 0.077900 0.507511 -0.201879
C38   C     C_3   0.414618 0.920149 0.492634 -0.155581
H9    H     H_    0.649556 0.143778 0.512972 0.141869
H10   H     H_    0.346455 0.854789 0.486519 0.129077
H11   H     H_    0.831143 0.009527 0.458843 0.142048
H12   H     H_    0.167367 0.988685 0.541452 0.139696
C39   C     C_3   0.502120 0.997550 0.562664 -0.049523
C40   C     C_3   0.496495 0.000693 0.437504 -0.028789
C41   C     C_3   0.598010 0.925604 0.532699 0.057115
C42   C     C_3   0.400208 0.072500 0.467508 0.038818
C43   C     C_R   0.503634 0.276954 0.178458 -0.082444
C44   C     C_R   0.498803 0.723290 0.823962 -0.074913
C45   C     C_R   0.592063 0.429887 0.191810 0.379645
C46   C     C_R   0.426321 0.567921 0.812361 0.386520
C47   C     C_R   0.567885 0.333031 0.217687 -0.241122
C48   C     C_R   0.438798 0.665059 0.785797 -0.253249
C49   C     C_R   0.473611 0.316203 0.112291 -0.130087
C50   C     C_R   0.536084 0.685637 0.889963 -0.243734
C51   C     C_R   0.520846 0.411009 0.083084 0.042309
C52   C     C_R   0.498555 0.590048 0.920425 0.013023
C53   C     C_R   0.563133 0.469028 0.124674 0.038838
C54   C     C_R   0.459751 0.530356 0.879434 0.118368
C55   C     C_R   0.517296 0.450846 0.014280 0.075837
C56   C     C_R   0.509222 0.550778 0.989479 -0.029876
C57   C     C_R   0.511334 0.606465 0.035046 -0.073561
C58   C     C_R   0.521697 0.394829 0.969167 -0.069209
C59   C     C_R   0.561069 0.565850 0.099703 -0.076626
C60   C     C_R   0.471291 0.433644 0.904671 -0.171155
H13   H     H_    0.576209 0.610099 0.132665 0.228816
H14   H     H_    0.462014 0.388211 0.872288 0.181965
H15   H     H_    0.598013 0.732100 0.916152 0.118039
H16   H     H_    0.413482 0.271464 0.084368 0.115242
H17   H     H_    0.408958 0.695013 0.734816 0.140612
H18   H     H_    0.594405 0.301587 0.268706 0.127854
C61   C     C_2   0.710254 0.842520 0.568910 0.359685
H19   H     H_    0.860911 0.836359 0.557614 0.053028
O21   O     O_2   0.632993 0.781631 0.611260 -0.550589
C62   C     C_2   0.287040 0.156557 0.433347 0.312389
H20   H     H_    0.205555 0.193898 0.461506 0.074868
O22   O     O_2   0.285323 0.183282 0.374324 -0.542798
O23   O     O_3   0.643340 0.487243 0.231039 -0.642204
H21   H     H_    0.656898 0.448801 0.276354 0.291125
O24   O     O_3   0.384128 0.508628 0.773666 -0.638145
H22   H     H_    0.369517 0.546021 0.728119 0.290791
C63   C     C_2   0.434282 0.702832 0.020589 0.416709
H23   H     H_    0.330615 0.726640 0.981835 0.056750
O25   O     O_2   0.482144 0.756004 0.053094 -0.514047
C64   C     C_2   0.605895 0.299979 0.983287 0.400474
H24   H     H_    0.558538 0.251479 0.955963 0.066327
O26   O     O_2   0.736988 0.277372 0.022325 -0.517090
C65   C     C_2   0.917714 0.251707 0.569744 0.278458
H25   H     H_    0.821010 0.279769 0.529521 0.057957
O27   O     O_2   0.971927 0.171062 0.579011 -0.548883
C66   C     C_2   0.805998 0.730479 0.420926 0.295465
H26   H     H_    0.697248 0.689587 0.452699 0.076878
O28   O     O_2   0.816174 0.814519 0.415540 -0.549974
C67   C     C_2   0.061250 0.302630 0.789448 0.439879
H27   H     H_    0.082743 0.228635 0.810964 0.043843
O29   O     O_2   0.064022 0.355433 0.824861 -0.510523
C68   C     C_2   0.141615 0.708184 0.216986 0.472175
H28   H     H_    0.117960 0.781427 0.193725 0.070532
O30   O     O_2   0.214945 0.659922 0.185264 -0.505320
O31   O     O_3   0.055521 0.823453 0.072840 -0.619710
H29   H     H_    0.046659 0.783502 0.042235 0.312532
O32   O     O_3   0.937884 0.177650 0.925761 -0.640883
H30   H     H_    0.000027 0.220439 0.948670 0.335568
O33   O     O_3   0.651228 0.063970 0.026693 -0.632317
H31   H     H_    0.583943 0.083445 0.984423 0.299373
O34   O     O_3   0.347164 0.938688 0.972590 -0.637546
H32   H     H_    0.421532 0.928708 0.013368 0.344933

loop_
_geom_bond_atom_site_label_1
_geom_bond_atom_site_label_2
_ccdc_geom_bond_type
C28   H8    S    
V4    O20   S    
C3    C43   S    
C47   H18   S    
C51   C55   A    
C11   H3    S    
O13   V3    S    
O24   H22   S    
C35   C41   S    
O4    C2    A    
V1    O19   S    
C68   H28   S    
C31   C33   S    
O33   H31   S    
C23   C25   A    
C21   C22   A    
C7    C9    S    
C36   C39   S    
C29   O31   S    
C9    C15   A    
C15   C66   S    
C10   C16   A    
C11   C13   A    
C40   C42   S    
O3    C1    A    
C29   C34   S    
C50   C52   A    
C27   C29   S    
C62   H20   S    
C36   H12   S    
C64   H24   S    
C18   C22   A    
O9    C5    A    
C37   H9    S    
O7    C3    A    
C44   C50   A    
O5    C7    A    
O7    V1    S    
O6    C8    A    
C52   C56   A    
O8    V2    S    
C25   H1    S    
C60   H14   S    
C26   H2    S    
O3    V1    S    
O14   V4    S    
C4    C44   S    
C11   C19   A    
C44   C48   A    
C13   C68   S    
C45   C53   A    
C24   C26   A    
C8    C10   S    
C2    O12   A    
C38   C41   S    
O17   V3    S    
C48   H17   S    
C17   C19   A    
C37   C42   S    
C18   C20   A    
C45   C47   A    
C28   C34   S    
O11   V3    S    
C28   C30   S    
C49   C51   A    
C36   C42   S    
C41   C61   S    
C15   C17   A    
O8    C4    A    
C55   C56   A    
C58   C64   S    
C19   C25   A    
C1    O11   A    
O15   V3    S    
C54   C60   A    
C2    C39   S    
C9    C13   A    
C6    C32   S    
C35   C37   S    
C32   C34   S    
C53   C59   A    
O9    V1    S    
O10   V2    S    
O1    V3    S    
C61   O21   D    
C57   C63   S    
C58   C60   A    
C50   H15   S    
C39   C41   S    
C33   O33   S    
C65   O27   D    
C35   H11   S    
C36   C38   S    
C52   C54   A    
C30   C33   S    
O18   V4    S    
C46   C48   A    
O15   C5    A    
C38   C40   S    
C67   H27   S    
O16   C6    A    
C12   C20   A    
O1    C3    A    
C66   O28   D    
O31   H29   S    
C43   C49   A    
C14   C67   S    
C27   C32   S    
C23   H5    S    
C63   H23   S    
V2    O20   S    
C21   C24   A    
C20   C26   A    
C28   C31   S    
C24   H6    S    
C22   C23   A    
O16   V4    S    
C10   C14   A    
O18   C8    A    
C27   C33   S    
C16   C18   A    
C68   O30   D    
C65   H25   S    
C59   H13   S    
C27   H7    S    
C1    C40   S    
O5    V1    S    
O17   C7    A    
O6    V2    S    
O34   H32   S    
O10   C6    A    
C29   C31   S    
C46   C54   A    
O2    V4    S    
C30   C32   S    
C46   O24   S    
C12   C14   A    
V3    O19   S    
C49   H16   S    
O23   H21   S    
C45   O23   S    
C55   C58   A    
C43   C47   A    
O32   H30   S    
C34   O34   S    
C62   O22   D    
C5    C31   S    
C56   C57   A    
O13   V1    S    
C64   O26   D    
C42   C62   S    
C37   C39   S    
O14   V2    S    
O2    C4    A    
C12   H4    S    
O4    V2    S    
C16   C65   S    
C57   C59   A    
C61   H19   S    
C67   O29   D    
C51   C53   A    
C17   C21   A    
C38   H10   S    
C35   C40   S    
C66   H26   S    
O12   V4    S    
C30   O32   S    
C63   O25   D    
