data_str_m2_o9_o12_f0_pcu.sym.45
_audit_creation_date              2012-10-26T20:16:41-0400
_audit_creation_method            fapswitch 2.2
_symmetry_space_group_name_H-M    P1
_symmetry_Int_Tables_number       1
_space_group_crystal_system       triclinic
_cell_length_a                    11.0124
_cell_length_b                    10.972893
_cell_length_c                    9.896762
_cell_angle_alpha                 98.876169
_cell_angle_beta                  98.582178
_cell_angle_gamma                 93.615846
_cell_volume                      1163.80615717

loop_
_atom_site_label
_atom_site_type_symbol
_atom_type_description
_atom_site_fract_x
_atom_site_fract_y
_atom_site_fract_z
_atom_type_partial_charge
C1    C     C_R   0.506039 0.262494 0.499237 0.545439
C2    C     C_R   0.664296 0.903729 0.841721 -0.075799
C3    C     C_R   0.448478 0.079538 0.237252 0.060321
C4    C     C_R   0.551519 0.920462 0.762749 0.060321
C5    C     C_R   0.558999 0.108458 0.188998 -0.047100
C6    C     C_R   0.440999 0.891546 0.811004 -0.047104
C7    C     C_R   0.556333 0.150800 0.062731 -0.077402
C8    C     C_R   0.443664 0.849205 0.937272 -0.077404
C9    C     C_R   0.443359 0.160377 0.981523 -0.119874
C10   C     C_R   0.556637 0.839624 0.018478 -0.119873
C11   C     C_R   0.433549 0.917295 0.385240 -0.034992
C12   C     C_R   0.493961 0.737506 0.500763 0.545439
C13   C     C_R   0.566449 0.082705 0.614761 -0.034991
C14   C     C_R   0.488345 0.872427 0.503874 -0.010592
C15   C     C_R   0.511654 0.127573 0.496126 -0.010593
C16   C     C_R   0.262098 0.501479 0.499067 0.538259
C17   C     C_R   0.737902 0.498520 0.500933 0.538258
C18   C     C_R   0.544335 0.956998 0.623510 -0.023675
C19   C     C_R   0.455663 0.043001 0.376491 -0.023675
C20   C     C_2   0.510826 0.509857 0.078871 -0.053084
C21   C     C_2   0.489173 0.490144 0.921129 -0.053084
C22   C     C_R   0.151156 0.479001 0.038565 0.009934
C23   C     C_R   0.872482 0.496681 0.505068 -0.009513
C24   C     C_R   0.848845 0.521002 0.961435 0.009933
C25   C     C_R   0.122808 0.507839 0.171923 -0.019010
C26   C     C_R   0.877192 0.492162 0.828077 -0.019010
C27   C     C_R   0.072485 0.415759 0.236157 0.030205
C28   C     C_R   0.927515 0.584241 0.763842 0.030205
C29   C     C_R   0.040595 0.295801 0.160712 -0.120680
C30   C     C_R   0.959406 0.704199 0.839286 -0.120680
C31   C     C_R   0.057908 0.269790 0.021927 -0.022184
C32   C     C_R   0.942093 0.730212 0.978071 -0.022185
C33   C     C_R   0.116874 0.360018 0.962541 -0.118763
C34   C     C_R   0.127518 0.503317 0.494932 -0.009514
C35   C     C_R   0.883128 0.639985 0.037459 -0.118764
C36   C     C_R   0.914913 0.444539 0.385222 -0.157518
C37   C     C_R   0.085087 0.555457 0.614778 -0.157519
C38   C     C_3   0.341950 0.833206 0.275732 -0.375254
C39   C     C_3   0.658047 0.166794 0.724270 -0.375253
C40   C     C_3   0.219961 0.575016 0.980548 -0.416902
C41   C     C_3   0.780039 0.424988 0.019454 -0.416902
C42   C     C_1   0.009337 0.153281 0.937324 0.168025
C43   C     C_1   0.990664 0.846723 0.062672 0.168024
C44   C     C_R   0.959821 0.549083 0.623982 -0.023807
C45   C     C_R   0.040179 0.450916 0.376017 -0.023806
C46   C     C_R   0.333717 0.131348 0.028319 -0.128971
C47   C     C_R   0.666279 0.868649 0.971680 -0.128970
C48   C     C_R   0.335701 0.096267 0.158279 -0.075803
Cu1   Cu    Cu3+1 0.521120 0.521140 0.639640 0.934593
Cu2   Cu    Cu3+1 0.478880 0.478860 0.360360 0.934593
H1    H     H_    0.133737 0.338475 0.856658 0.108980
H2    H     H_    0.378043 0.383540 0.095377 0.229122
H3    H     H_    0.142927 0.601614 0.227632 0.109877
H4    H     H_    0.857071 0.398387 0.772370 0.109878
H5    H     H_    0.995879 0.225590 0.207061 0.126623
H6    H     H_    0.004122 0.774410 0.792935 0.126622
H7    H     H_    0.849553 0.398623 0.297352 0.123880
H8    H     H_    0.150447 0.601371 0.702647 0.123882
H9    H     H_    0.439264 0.189833 0.881988 0.105669
H10   H     H_    0.560732 0.810169 0.118014 0.105670
H11   H     H_    0.247730 0.137377 0.963368 0.129040
H12   H     H_    0.866266 0.661529 0.143342 0.108979
H13   H     H_    0.752265 0.862616 0.036630 0.129037
H14   H     H_    0.249934 0.082430 0.196941 0.138734
H15   H     H_    0.750062 0.917563 0.803057 0.138733
H16   H     H_    0.283291 0.773989 0.326083 0.136311
H17   H     H_    0.277132 0.883083 0.213430 0.135438
H18   H     H_    0.390958 0.774617 0.205276 0.141109
H19   H     H_    0.722863 0.116916 0.786574 0.135439
H20   H     H_    0.716709 0.226010 0.673921 0.136311
H21   H     H_    0.609039 0.225385 0.794724 0.141109
H22   H     H_    0.246247 0.535535 0.880672 0.138142
H23   H     H_    0.647145 0.099516 0.250210 0.096627
H24   H     H_    0.166009 0.654616 0.968213 0.133981
H25   H     H_    0.304543 0.611065 0.053189 0.142311
H26   H     H_    0.753752 0.464472 0.119328 0.138143
H27   H     H_    0.695459 0.388936 0.946811 0.142310
H28   H     H_    0.833993 0.345388 0.031793 0.133981
H29   H     H_    0.352853 0.900490 0.749793 0.096628
H30   H     H_    0.641780 0.173437 0.027091 0.098981
H31   H     H_    0.358217 0.826572 0.972914 0.098983
H32   H     H_    0.418644 0.419210 0.865556 0.145177
H33   H     H_    0.581354 0.580791 0.134444 0.145177
H34   H     H_    0.621957 0.616460 0.904623 0.229122
N1    N     N_2   0.447120 0.447110 0.150550 -0.352594
N2    N     N_2   0.552880 0.552890 0.849450 -0.352594
N3    N     N_1   0.970656 0.060146 0.868001 -0.342990
N4    N     N_1   0.029344 0.939859 0.131993 -0.342993
O1    O     O_R   0.517830 0.337490 0.617920 -0.510625
O2    O     O_R   0.482170 0.662510 0.382080 -0.510624
O3    O     O_R   0.482150 0.301790 0.382070 -0.482118
O4    O     O_R   0.517850 0.698210 0.617930 -0.482118
O5    O     O_R   0.337480 0.517860 0.617920 -0.509314
O6    O     O_R   0.662520 0.482140 0.382080 -0.509314
O7    O     O_R   0.301810 0.482160 0.382070 -0.494010
O8    O     O_R   0.698190 0.517840 0.617930 -0.494011

loop_
_geom_bond_atom_site_label_1
_geom_bond_atom_site_label_2
_ccdc_geom_bond_type
C30   C32   A    
C31   C42   S    
C27   C29   A    
C34   C37   A    
C14   C18   A    
C10   H10   S    
C2    H15   S    
C15   C19   A    
C11   C19   A    
C16   O5    A    
C17   C23   S    
C13   C18   A    
C43   N4    T    
C12   O2    A    
H2    N1    S    
C24   C26   A    
C41   H27   S    
C11   C14   A    
Cu2   O7    S    
C48   H14   S    
C38   H18   S    
C3    C48   A    
Cu2   N1    S    
C16   C34   S    
Cu2   O2    S    
C38   H16   S    
C22   C25   A    
C31   C33   A    
C3    C19   S    
C1    C15   S    
C37   H8    S    
C4    C18   S    
C27   C45   S    
C9    C46   A    
C1    O3    A    
C24   C41   S    
C26   H4    S    
C46   C48   A    
C24   C35   A    
C46   H11   S    
C8    H31   S    
C32   C35   A    
C38   H17   S    
C4    C6    A    
C36   H7    S    
Cu1   O1    S    
C41   H28   S    
C34   C45   A    
Cu2   O6    S    
C6    C8    A    
C29   H5    S    
C30   H6    S    
C28   C44   S    
C23   C44   A    
C9    H9    S    
C11   C38   S    
C2    C4    A    
C22   C40   S    
C20   N1    D    
C39   H19   S    
C36   C45   A    
C17   O8    A    
C21   H32   S    
C12   C14   S    
Cu1   Cu2   S    
C13   C15   A    
C33   H1    S    
Cu1   O4    S    
C5    C7    A    
C7    C9    A    
C22   C33   A    
C21   N2    D    
C16   O7    A    
C1    O1    A    
C40   H22   S    
C39   H20   S    
Cu1   N2    S    
C12   O4    A    
C25   H3    S    
C3    C5    A    
C17   O6    A    
C2    C47   A    
C25   C27   A    
C26   C28   A    
C40   H25   S    
C37   C44   A    
C28   C30   A    
C29   C31   A    
C41   H26   S    
C47   H13   S    
C6    H29   S    
C32   C43   S    
C40   H24   S    
C35   H12   S    
Cu1   O8    S    
C5    H23   S    
C13   C39   S    
Cu2   O3    S    
C20   C21   S    
C8    C10   A    
C23   C36   A    
C20   H33   S    
C10   C47   A    
C39   H21   S    
H34   N2    S    
C42   N3    T    
Cu1   O5    S    
C7    H30   S    
