data_str_m9_o2_o19_f0_sra.sym.52
_audit_creation_date              2012-12-11T16:28:28-0500
_audit_creation_method            fapswitch 2.2
_symmetry_space_group_name_H-M    P1
_symmetry_Int_Tables_number       1
_space_group_crystal_system       triclinic
_cell_length_a                    16.655338
_cell_length_b                    7.267103
_cell_length_c                    15.182619
_cell_angle_alpha                 90.000369
_cell_angle_beta                  94.586535
_cell_angle_gamma                 90.001093
_cell_volume                      1831.75964299

loop_
_atom_site_label
_atom_site_type_symbol
_atom_type_description
_atom_site_fract_x
_atom_site_fract_y
_atom_site_fract_z
_atom_type_partial_charge
O1    O     O_R   0.663460 0.361760 0.165970 -0.530030
O2    O     O_R   0.336540 0.638240 0.834030 -0.534029
O3    O     O_R   0.836540 0.861760 0.334030 -0.530019
O4    O     O_R   0.163460 0.138240 0.665970 -0.534021
O5    O     O_R   0.827100 0.689870 0.163730 -0.537087
O6    O     O_R   0.172900 0.310130 0.836270 -0.541385
O7    O     O_R   0.672900 0.189870 0.336270 -0.537092
O8    O     O_R   0.327100 0.810130 0.663730 -0.541366
H1    H     H_    0.201394 0.881092 0.511414 0.140415
H2    H     H_    0.786637 0.007161 0.490121 0.114655
H3    H     H_    0.298581 0.381244 0.988574 0.140389
H4    H     H_    0.713361 0.507133 0.009881 0.114660
C1    C     C_R   0.853164 0.522958 0.143462 0.713175
C2    C     C_R   0.146471 0.476985 0.856087 0.706975
C3    C     C_R   0.646838 0.022957 0.356540 0.713195
C4    C     C_R   0.353537 0.976985 0.643922 0.706964
O9    O     O_R   0.663490 0.691370 0.155500 -0.539878
O10   O     O_R   0.336510 0.308630 0.844500 -0.539340
O11   O     O_R   0.836510 0.191370 0.344500 -0.539889
O12   O     O_R   0.163490 0.808630 0.655500 -0.539348
O13   O     O_R   0.671770 0.863320 0.325740 -0.534814
O14   O     O_R   0.328230 0.136680 0.674260 -0.532982
O15   O     O_R   0.828230 0.363320 0.174260 -0.534828
O16   O     O_R   0.171770 0.636680 0.825740 -0.532983
C5    C     C_R   0.633638 0.523620 0.136884 0.693536
C6    C     C_R   0.369144 0.476568 0.859359 0.700411
C7    C     C_R   0.866361 0.023623 0.363116 0.693573
C8    C     C_R   0.130858 0.976564 0.640635 0.700407
O17   O     O_3   0.752910 0.528800 0.305860 -0.380376
O18   O     O_3   0.247090 0.471200 0.694140 -0.375695
O19   O     O_3   0.747090 0.028800 0.194140 -0.380383
O20   O     O_3   0.252910 0.971200 0.805860 -0.375695
V1    V     V_3+5 0.749460 0.803010 0.239640 1.405312
V2    V     V_3+5 0.250540 0.196990 0.760360 1.391293
V3    V     V_3+5 0.750540 0.303010 0.260360 1.405298
V4    V     V_3+5 0.249460 0.696990 0.739640 1.391301
C9    C     C_1   0.470317 0.994720 0.531927 0.033093
C10   C     C_1   0.532365 0.005302 0.471323 0.034152
C11   C     C_1   0.029705 0.494724 0.968100 0.033009
C12   C     C_1   0.967651 0.505308 0.028697 0.034138
C13   C     C_R   0.040241 0.002266 0.323766 0.049556
C14   C     C_R   0.951852 0.033264 0.683376 0.034186
C15   C     C_R   0.459749 0.502290 0.176230 0.049544
C16   C     C_R   0.548150 0.533266 0.816624 0.034184
C17   C     C_R   0.114784 0.922803 0.305289 0.273691
C18   C     C_R   0.869208 0.011273 0.700063 0.279345
C19   C     C_R   0.385192 0.422874 0.194699 0.273748
C20   C     C_R   0.630794 0.511271 0.799938 0.279350
C21   C     C_R   0.170459 0.871820 0.374926 0.094872
C22   C     C_R   0.809350 0.002559 0.628587 0.107190
C23   C     C_R   0.329516 0.371912 0.125059 0.094808
C24   C     C_R   0.690650 0.502547 0.871415 0.107186
C25   C     C_R   0.153214 0.907473 0.461235 -0.211091
C26   C     C_R   0.834061 0.010044 0.543098 -0.225394
C27   C     C_R   0.346766 0.407574 0.038755 -0.211199
C28   C     C_R   0.665938 0.510026 0.956904 -0.225391
C29   C     C_R   0.076113 0.964579 0.482701 0.025118
C30   C     C_R   0.915547 0.013788 0.523839 0.033070
C31   C     C_R   0.423878 0.464623 0.017294 0.025161
C32   C     C_R   0.584452 0.513778 0.976161 0.033073
C33   C     C_R   0.015787 0.997322 0.412613 -0.019214
C34   C     C_R   0.977361 0.014420 0.594715 -0.013919
C35   C     C_R   0.484207 0.497337 0.087384 -0.019210
C36   C     C_R   0.522640 0.514420 0.905284 -0.013938
C37   C     C_R   0.059847 0.987774 0.572935 -0.117763
C38   C     C_R   0.934229 0.016540 0.433751 -0.108800
C39   C     C_R   0.440152 0.487790 0.927062 -0.117747
C40   C     C_R   0.565768 0.516532 0.066249 -0.108790
C41   C     C_1   0.417113 0.985987 0.582803 -0.195180
C42   C     C_1   0.584663 0.013848 0.419346 -0.197577
C43   C     C_1   0.082907 0.485988 0.917221 -0.195039
C44   C     C_1   0.915347 0.513853 0.080666 -0.197529
Br1   Br    Br    0.143428 0.896435 0.184879 -0.696845
Br2   Br    Br    0.842952 0.989665 0.822075 -0.693656
Br3   Br    Br    0.356533 0.396518 0.315101 -0.696794
Br4   Br    Br    0.657050 0.489668 0.677927 -0.693652
C45   C     C_3   0.717557 0.990134 0.631780 -0.314385
C46   C     C_3   0.678720 0.996447 0.719375 -0.598767
H5    H     H_    0.693729 0.871533 0.759111 0.264640
H6    H     H_    0.695743 0.123552 0.756588 0.274778
H7    H     H_    0.612189 0.998456 0.705735 0.196095
H8    H     H_    0.690496 0.105730 0.591576 0.207398
H9    H     H_    0.696850 0.861518 0.597460 0.209742
C47   C     C_3   0.250889 0.785529 0.360807 -0.320977
C48   C     C_3   0.317743 0.928700 0.363507 -0.646633
H10   H     H_    0.315649 0.002655 0.299656 0.258532
H11   H     H_    0.312102 0.028486 0.418056 0.243740
H12   H     H_    0.376943 0.859414 0.374252 0.221262
H13   H     H_    0.265670 0.681803 0.413494 0.210924
H14   H     H_    0.249337 0.710236 0.297475 0.246865
C49   C     C_3   0.782444 0.490121 0.868223 -0.314389
C50   C     C_3   0.821281 0.496439 0.780629 -0.598765
H15   H     H_    0.806270 0.371528 0.740890 0.264637
H16   H     H_    0.804261 0.623547 0.743418 0.274782
H17   H     H_    0.887812 0.498447 0.794269 0.196093
H18   H     H_    0.809507 0.605714 0.908430 0.207394
H19   H     H_    0.803147 0.361502 0.902540 0.209743
C51   C     C_3   0.249088 0.285583 0.139172 -0.320675
C52   C     C_3   0.182244 0.428762 0.136721 -0.646480
H20   H     H_    0.184210 0.501949 0.200793 0.258321
H21   H     H_    0.187985 0.529228 0.082455 0.244124
H22   H     H_    0.123046 0.359524 0.125651 0.221173
H23   H     H_    0.234239 0.182114 0.086380 0.210721
H24   H     H_    0.250711 0.209941 0.202414 0.246721
C53   C     C_3   0.000375 0.127249 0.252941 -0.365741
C54   C     C_3   0.953976 0.022886 0.177458 -0.582582
H25   H     H_    0.959742 0.095425 0.113884 0.215067
H26   H     H_    0.975362 0.879330 0.171323 0.241318
H27   H     H_    0.889766 0.017789 0.188591 0.235551
H28   H     H_    0.962500 0.233828 0.280805 0.175893
H29   H     H_    0.048089 0.210135 0.224930 0.205362
C55   C     C_3   0.007604 0.100245 0.760516 -0.358359
C56   C     C_3   0.044494 0.941503 0.816061 -0.594638
H30   H     H_    0.005190 0.901584 0.868441 0.244690
H31   H     H_    0.052335 0.819018 0.774201 0.208412
H32   H     H_    0.103315 0.983658 0.849088 0.228329
H33   H     H_    0.052282 0.195874 0.737774 0.182020
H34   H     H_    0.975456 0.192869 0.804014 0.206343
C57   C     C_3   0.499626 0.627262 0.247057 -0.365732
C58   C     C_3   0.546022 0.522898 0.322539 -0.582626
H35   H     H_    0.540338 0.595561 0.386098 0.215036
H36   H     H_    0.524571 0.379408 0.328742 0.241351
H37   H     H_    0.610217 0.517616 0.311352 0.235562
H38   H     H_    0.537505 0.733836 0.219193 0.175907
H39   H     H_    0.451917 0.710155 0.275069 0.205338
C59   C     C_3   0.492400 0.600250 0.739485 -0.358361
C60   C     C_3   0.455509 0.441510 0.683936 -0.594616
H40   H     H_    0.494807 0.401617 0.631546 0.244694
H41   H     H_    0.447677 0.319012 0.725791 0.208403
H42   H     H_    0.396681 0.483655 0.650920 0.228337
H43   H     H_    0.447722 0.695878 0.762227 0.182010
H44   H     H_    0.524550 0.692878 0.695989 0.206350

loop_
_geom_bond_atom_site_label_1
_geom_bond_atom_site_label_2
_ccdc_geom_bond_type
C30   C34   A    
C16   C20   A    
C53   H28   S    
C10   C42   T    
C59   C60   S    
C27   C31   A    
C2    C43   S    
C20   Br4   S    
O10   C6    A    
C13   C33   A    
C15   C35   A    
C57   H38   S    
C16   C36   A    
C16   C59   S    
C22   C26   A    
C13   C53   S    
C6    C39   S    
C45   H8    S    
C21   C47   S    
C9    C41   T    
C14   C18   A    
C55   H33   S    
C51   H24   S    
C48   H12   S    
O13   V1    S    
C54   H25   S    
O3    V1    S    
C51   H23   S    
C1    O15   A    
C17   Br1   S    
O8    V4    S    
C2    O16   A    
C14   C55   S    
C31   C39   A    
C49   H18   S    
C33   C38   A    
C30   C38   A    
O5    V1    S    
O19   V1    S    
C59   H44   S    
O11   C7    A    
C14   C34   A    
O5    C1    A    
C58   H37   S    
C56   H32   S    
C23   C51   S    
O7    C3    A    
C53   H29   S    
O8    C4    A    
C11   C43   T    
O1    C5    A    
C5    C40   S    
O9    V1    S    
C55   C56   S    
O4    C8    A    
C58   H36   S    
C48   H11   S    
O14   V2    S    
O4    V2    S    
C36   C39   A    
C47   C48   S    
C11   C12   S    
C25   C29   A    
C46   H5    S    
C19   C23   A    
O12   C8    A    
C45   C46   S    
C50   H17   S    
O6    V2    S    
O20   V2    S    
C60   H41   S    
C9    C10   S    
O6    C2    A    
C52   H20   S    
C17   C21   A    
C50   H16   S    
C46   H6    S    
O2    C6    A    
O16   V4    S    
C49   H19   S    
O10   V2    S    
C18   Br2   S    
C48   H10   S    
H4    C28   S    
C57   H39   S    
C52   H21   S    
O15   V3    S    
H1    C25   S    
C47   H13   S    
C60   H40   S    
C22   C45   S    
C49   C50   S    
H3    C27   S    
C58   H35   S    
O1    V3    S    
C56   H30   S    
C26   C30   A    
C47   H14   S    
O2    V4    S    
C3    C42   S    
O17   V3    S    
C35   C40   A    
C4    O14   A    
C12   C44   T    
C34   C37   A    
O7    V3    S    
C4    C41   S    
C45   H9    S    
C29   C37   A    
C57   C58   S    
C29   C33   A    
C1    C44   S    
C53   C54   S    
C18   C22   A    
C31   C35   A    
O18   V4    S    
C32   C36   A    
O9    C5    A    
O3    C7    A    
C8    C37   S    
C60   H42   S    
C19   Br3   S    
C7    C38   S    
O11   V3    S    
C55   H34   S    
C46   H7    S    
C3    O13   A    
C54   H26   S    
C59   H43   S    
C21   C25   A    
C50   H15   S    
C23   C27   A    
H2    C26   S    
O12   V4    S    
C28   C32   A    
C20   C24   A    
C52   H22   S    
C32   C40   A    
C51   C52   S    
C13   C17   A    
C24   C49   S    
C15   C19   A    
C24   C28   A    
C15   C57   S    
C56   H31   S    
C54   H27   S    
