data_str_m2_o16_o16_f0_pcu.sym.22
_audit_creation_date              2012-10-26T20:02:30-0400
_audit_creation_method            fapswitch 2.2
_symmetry_space_group_name_H-M    P1
_symmetry_Int_Tables_number       1
_space_group_crystal_system       triclinic
_cell_length_a                    18.975057
_cell_length_b                    18.570755
_cell_length_c                    12.41738
_cell_angle_alpha                 90.374107
_cell_angle_beta                  130.13201
_cell_angle_gamma                 89.916951
_cell_volume                      3345.36043963

loop_
_atom_site_label
_atom_site_type_symbol
_atom_type_description
_atom_site_fract_x
_atom_site_fract_y
_atom_site_fract_z
_atom_type_partial_charge
C1    C     C_R   0.612016 0.898063 0.652420 0.530552
C2    C     C_R   0.660756 0.725906 0.016590 0.052523
C3    C     C_R   0.151061 0.786602 0.994917 0.045245
C4    C     C_R   0.160756 0.225905 0.016589 0.052523
C5    C     C_R   0.572788 0.254164 0.873623 -0.150761
C6    C     C_R   0.582837 0.758981 0.898072 -0.142837
C7    C     C_R   0.072788 0.754167 0.873618 -0.150759
C8    C     C_R   0.082837 0.258980 0.898071 -0.142837
C9    C     C_R   0.578638 0.216656 0.782514 -0.131383
C10   C     C_R   0.586618 0.792498 0.802584 -0.126537
C11   C     C_R   0.078640 0.716658 0.782512 -0.131383
C12   C     C_R   0.611074 0.102703 0.651002 0.542443
C13   C     C_R   0.086618 0.292497 0.802584 -0.126538
C14   C     C_R   0.312913 0.817605 0.143811 -0.133759
C15   C     C_R   0.318952 0.187150 0.154501 -0.133881
C16   C     C_R   0.812911 0.317608 0.143806 -0.133760
C17   C     C_R   0.818952 0.687150 0.154501 -0.133882
C18   C     C_R   0.223588 0.854640 0.210949 -0.137591
C19   C     C_R   0.231113 0.154696 0.226268 -0.136158
C20   C     C_R   0.723590 0.354637 0.210954 -0.137592
C21   C     C_R   0.731113 0.654696 0.226269 -0.136159
C22   C     C_R   0.674706 0.163089 0.733545 -0.010013
C23   C     C_R   0.112016 0.398063 0.652420 0.530553
C24   C     C_R   0.678051 0.840300 0.740718 -0.012725
C25   C     C_R   0.174710 0.663087 0.733549 -0.010012
C26   C     C_R   0.178051 0.340300 0.740719 -0.012724
C27   C     C_R   0.674478 0.948911 0.286402 0.111959
C28   C     C_R   0.174477 0.448910 0.286402 0.111962
C29   C     C_R   0.343633 0.013465 0.625680 0.036358
C30   C     C_R   0.843633 0.513466 0.625680 0.036358
C31   C     C_R   0.308887 0.020169 0.695542 -0.161660
C32   C     C_R   0.808887 0.520170 0.695542 -0.161661
C33   C     C_R   0.384495 0.099094 0.343066 0.536168
C34   C     C_R   0.111075 0.602702 0.651003 0.542443
C35   C     C_R   0.383197 0.901842 0.340920 0.539207
C36   C     C_R   0.884495 0.599094 0.343066 0.536168
C37   C     C_R   0.883197 0.401842 0.340920 0.539207
C38   C     C_R   0.366879 0.012769 0.841282 -0.132625
C39   C     C_R   0.866879 0.512770 0.841282 -0.132625
C40   C     C_R   0.460960 0.997147 0.919983 -0.034949
C41   C     C_R   0.960960 0.497147 0.919983 -0.034949
C42   C     C_R   0.494879 0.991002 0.844797 0.200074
C43   C     C_R   0.994879 0.491002 0.844796 0.200075
C44   C     C_R   0.523094 0.988325 0.071141 -0.053276
C45   C     C_R   0.235239 0.785961 0.019623 0.026506
C46   C     C_R   0.023094 0.488325 0.071141 -0.053276
C47   C     C_R   0.611128 0.958127 0.138926 0.031680
C48   C     C_R   0.111127 0.458126 0.138925 0.031681
C49   C     C_R   0.637598 0.942311 0.060294 -0.137660
C50   C     C_R   0.137596 0.442309 0.060293 -0.137661
C51   C     C_R   0.590537 0.972979 0.928056 0.148200
C52   C     C_R   0.090536 0.472978 0.928056 0.148200
C53   C     C_R   0.502169 0.007627 0.158812 0.028114
C54   C     C_R   0.002169 0.507627 0.158812 0.028113
C55   C     C_R   0.650505 0.971933 0.365651 0.056870
C56   C     C_R   0.243292 0.223439 0.036437 0.028331
C57   C     C_R   0.150505 0.471933 0.365651 0.056869
C58   C     C_R   0.646181 0.320243 0.091564 -0.133968
C59   C     C_R   0.656078 0.693057 0.113306 -0.127219
C60   C     C_R   0.146179 0.820247 0.091558 -0.133967
C61   C     C_R   0.156078 0.193057 0.113305 -0.127217
C62   C     C_R   0.306700 0.854451 0.235513 -0.003780
C63   C     C_R   0.311747 0.149996 0.244323 -0.001170
C64   C     C_R   0.806699 0.354451 0.235513 -0.003782
C65   C     C_R   0.811747 0.649996 0.244324 -0.001170
C66   C     C_R   0.753970 0.168291 0.747184 -0.135130
C67   C     C_R   0.735237 0.285962 0.019621 0.026506
C68   C     C_R   0.756178 0.833981 0.751873 -0.135640
C69   C     C_R   0.253976 0.668285 0.747194 -0.135128
C70   C     C_R   0.256178 0.333982 0.751874 -0.135640
C71   C     C_R   0.323578 0.716614 0.842000 -0.144248
C72   C     C_R   0.327775 0.288833 0.851115 -0.142058
C73   C     C_R   0.823569 0.216623 0.841985 -0.144249
C74   C     C_R   0.827775 0.788832 0.851113 -0.142057
C75   C     C_R   0.317948 0.757124 0.930628 -0.123493
C76   C     C_R   0.324677 0.251759 0.944828 -0.122022
C77   C     C_R   0.817940 0.257131 0.930616 -0.123493
C78   C     C_R   0.743292 0.723439 0.036436 0.028331
C79   C     C_R   0.824677 0.751758 0.944826 -0.122021
C80   C     C_R   0.739772 0.251970 0.921630 0.027719
C81   C     C_R   0.747184 0.757090 0.937705 0.030191
C82   C     C_R   0.239777 0.751967 0.921636 0.027719
C83   C     C_R   0.247184 0.257090 0.937705 0.030191
C84   C     C_R   0.663342 0.210577 0.810864 0.012051
C85   C     C_R   0.669965 0.797152 0.826275 0.015860
C86   C     C_R   0.163345 0.710576 0.810867 0.012049
C87   C     C_R   0.169965 0.297152 0.826275 0.015860
C88   C     C_3   0.837090 0.965559 0.415999 -0.325154
C89   C     C_R   0.651061 0.286600 0.994920 0.045244
C90   C     C_3   0.337088 0.465552 0.415982 -0.325158
C91   C     C_3   0.700844 0.065058 0.994240 -0.292217
C92   C     C_3   0.200841 0.565058 0.994239 -0.292216
Cu1   Cu    Cu3+1 0.526340 0.000000 0.421010 0.918356
Cu2   Cu    Cu3+1 0.026340 0.500000 0.421010 0.918356
Cu3   Cu    Cu3+1 0.473640 1.000000 0.578990 0.937045
Cu4   Cu    Cu3+1 0.973640 0.500000 0.578990 0.937045
H1    H     H_    0.217508 0.883705 0.280520 0.121002
H2    H     H_    0.797601 0.519747 0.512598 0.120299
H3    H     H_    0.335981 0.017298 0.889643 0.107613
H4    H     H_    0.835981 0.517299 0.889643 0.107613
H5    H     H_    0.236385 0.031211 0.636192 0.103282
H6    H     H_    0.736385 0.531212 0.636192 0.103283
H7    H     H_    0.507297 0.256213 0.850725 0.100745
H8    H     H_    0.518311 0.758570 0.878370 0.099788
H9    H     H_    0.007296 0.756218 0.850716 0.100743
H10   H     H_    0.018310 0.258569 0.878369 0.099787
H11   H     H_    0.582005 0.321362 0.073019 0.103091
H12   H     H_    0.224620 0.126153 0.295301 0.115660
H13   H     H_    0.593251 0.694890 0.098610 0.102631
H14   H     H_    0.082001 0.821368 0.073009 0.103090
H15   H     H_    0.093250 0.194889 0.098609 0.102632
H16   H     H_    0.379667 0.814974 0.171685 0.118180
H17   H     H_    0.384351 0.185428 0.178131 0.116684
H18   H     H_    0.879663 0.314978 0.171676 0.118183
H19   H     H_    0.884351 0.685428 0.178131 0.116684
H20   H     H_    0.763507 0.133483 0.687152 0.128784
H21   H     H_    0.763375 0.865681 0.686500 0.117596
H22   H     H_    0.263514 0.633476 0.687164 0.128782
H23   H     H_    0.717511 0.383701 0.280528 0.121004
H24   H     H_    0.263376 0.365682 0.686501 0.117596
H25   H     H_    0.374896 0.793063 0.002837 0.107350
H26   H     H_    0.383492 0.218489 0.019570 0.100624
H27   H     H_    0.874886 0.293071 0.002822 0.107351
H28   H     H_    0.883491 0.718487 0.019567 0.100624
H29   H     H_    0.383967 0.720649 0.850749 0.106857
H30   H     H_    0.387650 0.284365 0.858671 0.104341
H31   H     H_    0.883955 0.220661 0.850729 0.106859
H32   H     H_    0.887649 0.784363 0.858668 0.104340
H33   H     H_    0.516024 0.192643 0.689661 0.148193
H34   H     H_    0.724620 0.626154 0.295302 0.115660
H35   H     H_    0.522479 0.813243 0.708492 0.150113
H36   H     H_    0.016025 0.692645 0.689657 0.148191
H37   H     H_    0.022479 0.313242 0.708491 0.150112
H38   H     H_    0.697984 0.964125 0.478386 0.120085
H39   H     H_    0.197984 0.464124 0.478386 0.120084
H40   H     H_    0.776377 0.877163 0.427222 0.245863
H41   H     H_    0.848495 0.997156 0.502435 0.131756
H42   H     H_    0.822675 0.002865 0.334508 0.149536
H43   H     H_    0.900946 0.935322 0.459612 0.149543
H44   H     H_    0.276378 0.377165 0.427231 0.245862
H45   H     H_    0.706315 0.921913 0.112645 0.156639
H46   H     H_    0.348496 0.497159 0.502410 0.131760
H47   H     H_    0.322672 0.502848 0.334480 0.149534
H48   H     H_    0.400943 0.435312 0.459600 0.149542
H49   H     H_    0.693894 0.965351 0.918341 0.242426
H50   H     H_    0.743436 0.086393 0.969521 0.144736
H51   H     H_    0.748898 0.050160 0.107163 0.107729
H52   H     H_    0.653549 0.107442 0.977788 0.175486
H53   H     H_    0.193895 0.465352 0.918342 0.242426
H54   H     H_    0.243435 0.586393 0.969524 0.144736
H55   H     H_    0.248894 0.550161 0.107163 0.107727
H56   H     H_    0.206313 0.421909 0.112643 0.156637
H57   H     H_    0.153545 0.607442 0.977785 0.175486
H58   H     H_    0.435192 0.027835 0.114869 0.124518
H59   H     H_    0.935192 0.527836 0.114869 0.124517
H60   H     H_    0.297601 0.019747 0.512598 0.120299
N1    N     N_R   0.566260 0.000000 0.302220 -0.253709
N2    N     N_R   0.066260 0.500000 0.302220 -0.253708
N3    N     N_R   0.434410 0.000000 0.697680 -0.225192
N4    N     N_R   0.934410 0.500000 0.697680 -0.225191
N5    N     N_2   0.761522 0.915485 0.355408 -0.538816
N6    N     N_2   0.261520 0.415481 0.355407 -0.538814
N7    N     N_2   0.648838 0.002838 0.905591 -0.435567
N8    N     N_2   0.148837 0.502838 0.905592 -0.435569
O1    O     O_R   0.608610 0.924520 0.551740 -0.511969
O2    O     O_R   0.435880 0.924530 0.314850 -0.497923
O3    O     O_R   0.935880 0.575470 0.314850 -0.508428
O4    O     O_R   0.935880 0.424530 0.314850 -0.497923
O5    O     O_R   0.391380 0.075460 0.448260 -0.520193
O6    O     O_R   0.391380 0.924540 0.448260 -0.510470
O7    O     O_R   0.891380 0.575460 0.448260 -0.520193
O8    O     O_R   0.891380 0.424540 0.448260 -0.510470
O9    O     O_R   0.608610 0.075480 0.551740 -0.501938
O10   O     O_R   0.108610 0.424520 0.551740 -0.511970
O11   O     O_R   0.108610 0.575480 0.551740 -0.501938
O12   O     O_R   0.564110 0.924510 0.685150 -0.488781
O13   O     O_R   0.564110 0.075490 0.685150 -0.461699
O14   O     O_R   0.064110 0.424510 0.685150 -0.488781
O15   O     O_R   0.064110 0.575490 0.685150 -0.461699
O16   O     O_R   0.435880 0.075470 0.314850 -0.508429

loop_
_geom_bond_atom_site_label_1
_geom_bond_atom_site_label_2
_ccdc_geom_bond_type
C83   C87   A    
C57   N2    A    
C5    H7    S    
C10   C85   A    
C8    C13   A    
C68   C74   A    
H53   N8    S    
C42   N3    A    
C80   C84   A    
C33   O5    A    
C11   H36   S    
C37   O8    A    
C91   H51   S    
C28   N6    S    
C39   C41   A    
C23   O10   A    
C28   C57   A    
C30   N4    A    
C66   H20   S    
C90   N6    S    
Cu3   N3    S    
C31   H5    S    
C38   C40   A    
C21   C59   A    
C3    C7    A    
C27   C55   A    
C43   C52   A    
C32   C39   A    
C11   C86   A    
H44   N6    S    
C88   N5    S    
C14   C62   A    
C12   C22   S    
C69   H22   S    
C67   C89   A    
C35   O2    A    
C58   H11   S    
C23   C26   S    
C69   C71   A    
C10   H35   S    
C22   C66   A    
C23   O14   A    
C34   O11   A    
C44   C53   A    
Cu3   O13   S    
C74   H32   S    
C45   C82   A    
C19   C63   A    
C26   C87   A    
C49   C51   A    
Cu4   O7    S    
C49   H45   S    
C50   C52   A    
C41   C46   A    
C15   H17   S    
C51   N7    S    
C92   H57   S    
C18   H1    S    
C6    H8    S    
C37   O4    A    
C24   C85   A    
C40   C44   A    
C90   H47   S    
C44   C47   A    
C4    C8    A    
C42   C51   A    
C13   C87   A    
C19   H12   S    
C92   N8    S    
C40   C42   A    
C12   O13   A    
Cu1   O1    S    
C53   H58   S    
Cu2   N2    S    
C4    C56   A    
C33   O16   A    
C41   C43   A    
C91   N7    S    
C34   O15   A    
C2    C6    A    
C76   C83   A    
C91   H52   S    
C58   C89   A    
Cu1   O16   S    
C7    C11   A    
C14   C45   A    
H40   N5    S    
C5    C89   A    
Cu1   N1    S    
C46   C48   A    
C71   C75   A    
C29   N3    A    
C43   N4    A    
C70   H24   S    
C54   H59   S    
C79   C81   A    
C2    C59   A    
C18   C62   A    
Cu2   O11   S    
H49   N7    S    
C82   C86   A    
C66   C73   A    
C4    C61   A    
C3    C45   A    
C36   O3    A    
C72   H30   S    
C12   O9    A    
C22   C84   A    
C20   C64   A    
C14   H16   S    
Cu3   O12   S    
C88   H43   S    
C5    C9    A    
C2    C78   A    
C68   H21   S    
C54   N2    A    
C1    O1    A    
C33   C63   S    
C46   C54   A    
C92   H55   S    
C7    H9    S    
C72   C76   A    
C16   C67   A    
Cu2   Cu4   S    
C48   C50   A    
Cu3   O5    S    
C88   H42   S    
C90   H46   S    
Cu2   O10   S    
C29   H60   S    
C18   C60   A    
C17   C65   A    
Cu4   N4    S    
C52   N8    S    
Cu1   O2    S    
C1    O12   A    
C74   C79   A    
C92   H54   S    
C26   C70   A    
C32   H6    S    
C16   H18   S    
C25   C69   A    
Cu2   O4    S    
C61   H15   S    
C21   H34   S    
C37   C64   S    
C17   H19   S    
C56   C83   A    
C77   C80   A    
C27   C47   A    
C30   H2    S    
C28   C48   A    
C36   O7    A    
C73   C77   A    
C21   C65   A    
C75   H25   S    
C13   H37   S    
C57   H39   S    
C67   C80   A    
C38   H3    S    
C8    H10   S    
Cu2   O3    S    
C6    C10   A    
C75   C82   A    
C9    H33   S    
C47   C49   A    
C55   H38   S    
C79   H28   S    
C25   C34   S    
C53   N1    A    
C31   C38   A    
C76   H26   S    
C15   C56   A    
C36   C65   S    
C29   C31   A    
C73   H31   S    
C27   N5    S    
C30   C32   A    
C78   C81   A    
C39   H4    S    
C25   C86   A    
C19   C61   A    
Cu1   O9    S    
C17   C78   A    
C59   H13   S    
C35   C62   S    
C20   H23   S    
Cu4   O15   S    
Cu3   O6    S    
C90   H48   S    
C88   H41   S    
C60   H14   S    
C24   C68   A    
C9    C84   A    
C50   H56   S    
C55   N1    A    
C1    C24   S    
Cu1   Cu3   S    
Cu4   O8    S    
C35   O6    A    
C15   C63   A    
C71   H29   S    
C70   C72   A    
C16   C64   A    
Cu4   O14   S    
C3    C60   A    
C20   C58   A    
C91   H50   S    
C81   C85   A    
C77   H27   S    
