data_str_m2_o10_o29_f0_pcu.sym.67
_audit_creation_date              2012-10-26T20:17:41-0400
_audit_creation_method            fapswitch 2.2
_symmetry_space_group_name_H-M    P1
_symmetry_Int_Tables_number       1
_space_group_crystal_system       triclinic
_cell_length_a                    27.763588
_cell_length_b                    8.669879
_cell_length_c                    7.432606
_cell_angle_alpha                 103.053048
_cell_angle_beta                  93.936567
_cell_angle_gamma                 92.432294
_cell_volume                      1735.64743781

loop_
_atom_site_label
_atom_site_type_symbol
_atom_type_description
_atom_site_fract_x
_atom_site_fract_y
_atom_site_fract_z
_atom_type_partial_charge
C1    C     C_R   0.498539 0.199618 0.453132 0.554726
C2    C     C_R   0.869043 0.358116 0.425019 0.013001
C3    C     C_R   0.354604 0.498537 0.509860 0.006725
C4    C     C_R   0.645396 0.501469 0.490142 0.006677
C5    C     C_R   0.971431 0.352725 0.438304 0.011168
C6    C     C_R   0.028577 0.647282 0.561755 0.011175
C7    C     C_R   0.977191 0.646463 0.535012 0.025245
C8    C     C_R   0.022816 0.353543 0.465065 0.025242
C9    C     C_R   0.949048 0.499789 0.484474 0.026580
C10   C     C_R   0.050960 0.500216 0.515588 0.026584
C11   C     C_R   0.940914 0.212881 0.359393 -0.035629
C12   C     C_R   0.501461 0.800382 0.546868 0.554728
C13   C     C_R   0.059096 0.787127 0.640641 -0.035627
C14   C     C_R   0.890904 0.215871 0.365241 -0.113599
C15   C     C_R   0.109105 0.784137 0.634751 -0.113598
C16   C     C_R   0.407477 0.499564 0.502899 0.552955
C17   C     C_R   0.592523 0.500438 0.497101 0.552934
C18   C     C_R   0.047267 0.212549 0.456493 -0.105350
C19   C     C_R   0.952740 0.787459 0.543614 -0.105360
C20   C     C_2   0.497840 0.031640 0.426734 -0.147502
C21   C     C_2   0.502160 0.968360 0.573265 -0.147504
C22   C     C_R   0.175705 0.355831 0.490351 0.402537
C23   C     C_R   0.102285 0.498932 0.525723 -0.028784
C24   C     C_R   0.824302 0.644168 0.509738 0.402499
C25   C     C_R   0.181450 0.638399 0.573613 0.405291
C26   C     C_R   0.818557 0.361602 0.426362 0.405282
C27   C     C_R   0.283856 0.518123 0.686786 -0.051343
C28   C     C_R   0.716130 0.480736 0.313112 -0.051425
C29   C     C_R   0.333944 0.519081 0.680651 -0.139700
C30   C     C_R   0.666042 0.479799 0.319247 -0.139812
C31   C     C_R   0.324244 0.476442 0.345564 -0.135790
C32   C     C_R   0.675767 0.524691 0.654543 -0.135886
C33   C     C_R   0.274193 0.474995 0.352145 -0.052889
C34   C     C_R   0.897722 0.501071 0.474327 -0.028782
C35   C     C_R   0.725818 0.526154 0.647963 -0.052905
C36   C     C_R   0.253947 0.496075 0.522597 0.246040
C37   C     C_R   0.746054 0.503923 0.477406 0.245887
C38   C     C_1   0.957449 0.069799 0.245650 0.182878
C39   C     C_1   0.042566 0.930206 0.754407 0.182875
C40   C     C_R   0.125138 0.354347 0.489559 0.026980
C41   C     C_R   0.874869 0.645654 0.510532 0.026991
C42   C     C_R   0.097274 0.212203 0.461359 -0.097876
C43   C     C_R   0.902733 0.787801 0.538764 -0.097886
C44   C     C_R   0.130964 0.641889 0.574981 0.012981
Cu1   Cu    Cu3+1 0.505380 0.517380 0.684380 0.964794
Cu2   Cu    Cu3+1 0.494620 0.482620 0.315620 0.964789
H1    H     H_    0.339088 0.460200 0.212008 0.131046
H2    H     H_    0.356407 0.536192 0.809418 0.131833
H3    H     H_    0.731738 0.463520 0.180930 0.125759
H4    H     H_    0.268236 0.534447 0.818879 0.125465
H5    H     H_    0.868688 0.106887 0.311762 0.174961
H6    H     H_    0.131322 0.893123 0.688203 0.174959
H7    H     H_    0.028768 0.100652 0.454252 0.131454
H8    H     H_    0.971237 0.899361 0.545868 0.131454
H9    H     H_    0.493773 0.959757 0.285649 0.135858
H10   H     H_    0.506226 0.040243 0.714351 0.135850
H11   H     H_    0.660933 0.541842 0.788187 0.131140
H12   H     H_    0.462153 0.378146 0.948534 0.239685
H13   H     H_    0.537847 0.621855 0.051466 0.239706
H14   H     H_    0.251086 0.458268 0.224977 0.128666
H15   H     H_    0.748932 0.543775 0.775226 0.128903
H16   H     H_    0.114029 0.099901 0.447242 0.167744
H17   H     H_    0.885978 0.900105 0.552908 0.167762
H18   H     H_    0.643569 0.461781 0.190390 0.132001
N1    N     N_R   0.202570 0.496737 0.528732 -0.401917
N2    N     N_R   0.797435 0.503261 0.471290 -0.401884
N3    N     N_2   0.486510 0.456430 0.038510 -0.258459
N4    N     N_2   0.513490 0.543570 0.961490 -0.258451
N5    N     N_1   0.970188 0.954699 0.154084 -0.270450
N6    N     N_1   0.029831 0.045304 0.845992 -0.270448
O1    O     O_R   0.503500 0.286120 0.619780 -0.504686
O2    O     O_2   0.802130 0.782090 0.546998 -0.468699
O3    O     O_2   0.790780 0.224736 0.383865 -0.468311
O4    O     O_2   0.209230 0.775260 0.616073 -0.468197
O5    O     O_R   0.496500 0.713880 0.380220 -0.504683
O6    O     O_R   0.494410 0.256780 0.308360 -0.494919
O7    O     O_R   0.505590 0.743220 0.691640 -0.494920
O8    O     O_R   0.434810 0.514700 0.655690 -0.507819
O9    O     O_R   0.565190 0.485300 0.344310 -0.507837
O10   O     O_R   0.425720 0.485350 0.344280 -0.502143
O11   O     O_R   0.574280 0.514650 0.655720 -0.502143
O12   O     O_2   0.197879 0.217910 0.453125 -0.468597

loop_
_geom_bond_atom_site_label_1
_geom_bond_atom_site_label_2
_ccdc_geom_bond_type
C30   H18   S    
Cu1   O1    S    
C33   C36   A    
Cu2   O6    S    
C43   H17   S    
Cu1   Cu2   S    
C1    O1    A    
C22   O12   S    
C35   C37   A    
C15   C44   A    
C5    C11   A    
C18   C42   A    
Cu2   O9    S    
C11   C14   A    
C27   C29   A    
C23   C40   A    
C17   O9    A    
C26   O3    S    
C25   O4    S    
C3    C29   A    
C18   H7    S    
C31   C33   A    
Cu1   O8    S    
C42   H16   S    
C17   O11   A    
C27   H4    S    
C24   N2    A    
C2    C34   A    
C40   C42   A    
C38   N5    T    
C31   H1    S    
C37   N2    S    
C24   C41   A    
C41   C43   A    
C34   C41   A    
C32   H11   S    
C20   H9    S    
C25   C44   A    
Cu2   O5    S    
C19   C43   A    
C29   H2    S    
N3    N4    D    
C26   N2    A    
C32   C35   A    
C25   N1    A    
C2    C26   A    
C36   N1    S    
C12   C21   S    
C8    C18   A    
C23   C44   A    
C16   O10   A    
C11   C38   S    
C22   N1    A    
C5    C9    A    
H13   N4    S    
C5    C8    A    
C28   H3    S    
C14   H5    S    
C22   C40   A    
C12   O7    A    
Cu1   N4    S    
C35   H15   S    
C15   H6    S    
C3    C31   A    
C4    C32   A    
C4    C17   S    
C19   H8    S    
C33   H14   S    
C7    C19   A    
C13   C15   A    
C9    C34   A    
C10   C23   A    
C24   O2    S    
C7    C9    A    
C1    C20   S    
C1    O6    A    
Cu1   O11   S    
C6    C10   A    
C21   H10   S    
C6    C7    A    
C27   C36   A    
C28   C30   A    
Cu2   N3    S    
C6    C13   A    
Cu2   O10   S    
C28   C37   A    
C39   N6    T    
C16   O8    A    
C2    C14   A    
C13   C39   S    
H12   N3    S    
C20   C21   D    
C8    C10   A    
C12   O5    A    
Cu1   O7    S    
C4    C30   A    
C3    C16   S    
