data_str_m9_o13_o16_f0_sra.sym.100
_audit_creation_date              2012-12-11T14:43:29-0500
_audit_creation_method            fapswitch 2.2
_symmetry_space_group_name_H-M    P1
_symmetry_Int_Tables_number       1
_space_group_crystal_system       triclinic
_cell_length_a                    20.82604
_cell_length_b                    7.103547
_cell_length_c                    16.406386
_cell_angle_alpha                 90.003929
_cell_angle_beta                  92.504975
_cell_angle_gamma                 90.002317
_cell_volume                      2424.82099226

loop_
_atom_site_label
_atom_site_type_symbol
_atom_type_description
_atom_site_fract_x
_atom_site_fract_y
_atom_site_fract_z
_atom_type_partial_charge
O1    O     O_R   0.564840 0.505290 0.579830 -0.536851
O2    O     O_R   0.435160 0.005290 0.420170 -0.536861
O3    O     O_R   0.556720 0.179930 0.409350 -0.536605
O4    O     O_R   0.443280 0.679930 0.590650 -0.536601
C1    C     C_R   0.570303 0.344804 0.380984 0.735034
C2    C     C_R   0.429697 0.844809 0.619015 0.735039
O5    O     O_R   0.572280 0.175810 0.578530 -0.545275
O6    O     O_R   0.427720 0.675810 0.421470 -0.545300
O7    O     O_R   0.450830 0.001920 0.590540 -0.535450
O8    O     O_R   0.549170 0.501920 0.409460 -0.535443
C3    C     C_R   0.590085 0.342730 0.605001 0.695003
C4    C     C_R   0.409913 0.842714 0.395000 0.695017
O9    O     O_3   0.460130 0.338030 0.503750 -0.374128
O10   O     O_3   0.539870 0.838030 0.496250 -0.374113
V1    V     V_3+5 0.507400 0.064560 0.499310 1.422511
V2    V     V_3+5 0.492600 0.564560 0.500690 1.422502
C5    C     C_R   0.144644 0.926988 0.166825 -0.065548
C6    C     C_R   0.855372 0.426921 0.833155 -0.065509
C7    C     C_R   0.355459 0.838932 0.332896 -0.064994
C8    C     C_R   0.644525 0.339000 0.667123 -0.064995
C9    C     C_R   0.290790 0.655659 0.233021 -0.181499
C10   C     C_R   0.709095 0.155897 0.767145 -0.181328
C11   C     C_R   0.345083 0.674955 0.285453 -0.140160
C12   C     C_R   0.654815 0.175190 0.714690 -0.140107
C13   C     C_R   0.310535 0.986098 0.325082 -0.238497
C14   C     C_R   0.689524 0.486010 0.674827 -0.238533
C15   C     C_R   0.255242 0.966639 0.272733 0.161528
C16   C     C_R   0.744803 0.466556 0.727199 0.161466
C17   C     C_R   0.245060 0.799659 0.226590 0.154493
C18   C     C_R   0.754896 0.299739 0.773474 0.154413
C19   C     C_R   0.189712 0.780124 0.174329 -0.240963
C20   C     C_R   0.810232 0.280205 0.825757 -0.240949
C21   C     C_R   0.155081 0.091030 0.214199 -0.156893
C22   C     C_R   0.845023 0.590795 0.785655 -0.156890
C23   C     C_R   0.209499 0.110590 0.266368 -0.197314
C24   C     C_R   0.790620 0.610344 0.733459 -0.197223
H1    H     H_    0.182858 0.653946 0.137803 0.126929
H2    H     H_    0.817020 0.154162 0.862384 0.126913
H3    H     H_    0.121221 0.206779 0.210223 0.126402
H4    H     H_    0.878943 0.706414 0.789554 0.126338
H5    H     H_    0.284286 0.526939 0.198159 0.130572
H6    H     H_    0.715534 0.027297 0.802104 0.130631
H7    H     H_    0.216025 0.239341 0.301204 0.118385
H8    H     H_    0.784165 0.738960 0.698518 0.118407
H9    H     H_    0.378873 0.559053 0.289604 0.133748
H10   H     H_    0.620964 0.059417 0.710616 0.133723
H11   H     H_    0.317394 0.112353 0.361557 0.121834
H12   H     H_    0.682734 0.612119 0.638245 0.121813
C25   C     C_R   0.381156 0.856739 0.837134 0.652853
C26   C     C_R   0.618845 0.356635 0.162866 0.652849
H13   H     H_    0.470187 0.839141 0.776643 0.146257
H14   H     H_    0.529815 0.339031 0.223357 0.146276
H15   H     H_    0.300358 0.873028 0.958583 0.189955
H16   H     H_    0.699644 0.372887 0.041418 0.189938
C27   C     C_R   0.389314 0.853639 0.690465 -0.133269
C28   C     C_R   0.610686 0.353618 0.309535 -0.133272
C29   C     C_R   0.078066 0.914400 0.732246 -0.166428
C30   C     C_R   0.921933 0.414474 0.267753 -0.166424
C31   C     C_R   0.112609 0.907012 0.661753 -0.124844
C32   C     C_R   0.887390 0.407106 0.338246 -0.124851
C33   C     C_R   0.179439 0.894104 0.666383 -0.155402
C34   C     C_R   0.820559 0.394169 0.333616 -0.155413
C35   C     C_R   0.213924 0.888073 0.742636 0.114101
C36   C     C_R   0.786075 0.388087 0.257364 0.114104
C37   C     C_R   0.177968 0.895710 0.815012 0.073047
C38   C     C_R   0.822032 0.395698 0.184988 0.073060
C39   C     C_R   0.282728 0.874788 0.749401 0.007320
C40   C     C_R   0.717272 0.374774 0.250599 0.007319
C41   C     C_R   0.313727 0.869535 0.828430 -0.006551
C42   C     C_R   0.686274 0.369464 0.171571 -0.006539
C43   C     C_R   0.277292 0.877059 0.898111 -0.125531
C44   C     C_R   0.722709 0.376962 0.101890 -0.125561
C45   C     C_R   0.210709 0.889887 0.891630 -0.216269
C46   C     C_R   0.789292 0.389821 0.108371 -0.216282
C47   C     C_R   0.322108 0.866459 0.680706 -0.224629
C48   C     C_R   0.677891 0.366472 0.319293 -0.224637
C49   C     C_R   0.418366 0.848969 0.768662 -0.229780
C50   C     C_R   0.581635 0.348888 0.231338 -0.229761
C51   C     C_R   0.109757 0.909032 0.809045 -0.079426
C52   C     C_R   0.890243 0.409052 0.190955 -0.079424
H17   H     H_    0.302337 0.869550 0.618933 0.109294
H18   H     H_    0.697662 0.369610 0.381065 0.109290
H19   H     H_    0.202562 0.889138 0.609005 0.106961
H20   H     H_    0.797436 0.389221 0.390993 0.106955
H21   H     H_    0.087302 0.911371 0.602713 0.119476
H22   H     H_    0.912695 0.411504 0.397284 0.119477
H23   H     H_    0.184984 0.895238 0.947541 0.112504
H24   H     H_    0.815018 0.395150 0.052460 0.112488
O11   O     O_R   0.950790 0.256670 0.090520 -0.533888
O12   O     O_R   0.049210 0.756670 0.909480 -0.533892
O13   O     O_R   0.927720 0.590370 0.921470 -0.541811
O14   O     O_R   0.072280 0.090370 0.078530 -0.541842
C53   C     C_R   0.910021 0.423030 0.894953 0.687843
C54   C     C_R   0.089981 0.923046 0.105045 0.687850
O15   O     O_R   0.943270 0.586180 0.090640 -0.535661
O16   O     O_R   0.056730 0.086180 0.909360 -0.535657
O17   O     O_R   0.064850 0.759970 0.079840 -0.537873
O18   O     O_R   0.935150 0.259970 0.920160 -0.537868
C55   C     C_R   0.930215 0.417674 0.118817 0.683487
C56   C     C_R   0.069785 0.917669 0.881182 0.683498
O19   O     O_3   0.039850 0.428050 0.996240 -0.370226
O20   O     O_3   0.960150 0.928050 0.003760 -0.370212
V3    V     V_3+5 0.992610 0.701540 0.000700 1.422054
V4    V     V_3+5 0.007390 0.201540 0.999300 1.422035
H25   H     H_    0.026121 0.924421 0.726892 0.101972
H26   H     H_    0.973878 0.424520 0.273107 0.101984
F1    F     F_    0.411292 0.851692 0.912225 -0.657845
F2    F     F_    0.588710 0.351532 0.087776 -0.657852

loop_
_geom_bond_atom_site_label_1
_geom_bond_atom_site_label_2
_ccdc_geom_bond_type
C29   H25   S    
C35   C37   A    
C37   C51   A    
C15   C17   A    
C29   C51   A    
C1    C28   S    
O1    C3    A    
C2    C27   S    
O2    C4    A    
C2    O7    A    
H13   C49   S    
C37   C45   A    
C25   F1    S    
O5    C3    A    
C21   H3    S    
O11   C55   A    
C11   H9    S    
C36   C40   A    
C27   C49   A    
O15   C55   A    
C29   C31   A    
C30   C32   A    
C38   C46   A    
C28   C50   A    
C32   C34   A    
C41   C43   A    
C45   H23   S    
C34   C36   A    
C46   H24   S    
C8    C12   A    
C20   H2    S    
C23   H7    S    
C13   H11   S    
C22   C24   A    
C14   H12   S    
C27   C47   A    
O5    V1    S    
O19   V3    S    
C25   C41   A    
C26   F2    S    
C5    C21   A    
H14   C50   S    
C26   C50   A    
O12   C56   A    
O15   V3    S    
C35   C39   A    
C3    C8    S    
C31   C33   A    
C51   C56   S    
C44   C46   A    
C33   H19   S    
C48   H18   S    
C43   C45   A    
C32   H22   S    
C47   H17   S    
C54   O17   A    
C15   C23   A    
C9    C17   A    
C19   H1    S    
C39   C41   A    
C36   C38   A    
O4    V2    S    
C7    C11   A    
C31   H21   S    
O13   C53   A    
O6    C4    A    
O14   C54   A    
H16   C44   S    
O1    V2    S    
O20   V4    S    
O2    V1    S    
C6    C22   A    
O17   V3    S    
C9    H5    S    
O4    C2    A    
O19   V4    S    
C28   C48   A    
C9    C11   A    
C52   C55   S    
C13   C15   A    
C5    C19   A    
C22   H4    S    
C24   H8    S    
C6    C20   A    
H15   C43   S    
O3    V1    S    
C6    C53   S    
C34   H20   S    
C10   C18   A    
C17   C19   A    
C33   C35   A    
O13   V3    S    
O3    C1    A    
C30   C52   A    
C40   C48   A    
C38   C52   A    
C14   C16   A    
C12   H10   S    
O16   V4    S    
C26   C42   A    
C1    O8    A    
O11   V4    S    
O8    V2    S    
C18   C20   A    
C10   H6    S    
C8    C14   A    
O18   V4    S    
O16   C56   A    
C4    C7    S    
C16   C18   A    
C21   C23   A    
C25   C49   A    
C10   C12   A    
O7    V1    S    
O20   V3    S    
C7    C13   A    
O12   V3    S    
O14   V4    S    
C39   C47   A    
C16   C24   A    
O6    V2    S    
O9    V2    S    
C40   C42   A    
O10   V1    S    
C42   C44   A    
C5    C54   S    
C30   H26   S    
C53   O18   A    
