data_str_m3_o41_o41_f0_fof.sym.64
_audit_creation_date              2012-12-10T16:39:37-0500
_audit_creation_method            fapswitch 2.2
_symmetry_space_group_name_H-M    P1
_symmetry_Int_Tables_number       1
_space_group_crystal_system       triclinic
_cell_length_a                    16.810447
_cell_length_b                    16.821814
_cell_length_c                    16.878523
_cell_angle_alpha                 66.115491
_cell_angle_beta                  66.037879
_cell_angle_gamma                 65.967514
_cell_volume                      3815.96701195

loop_
_atom_site_label
_atom_site_type_symbol
_atom_type_description
_atom_site_fract_x
_atom_site_fract_y
_atom_site_fract_z
_atom_type_partial_charge
C1    C     C_R   0.313248 0.004959 0.430950 -0.003311
C2    C     C_R   0.328483 0.458257 0.947148 0.037557
C3    C     C_R   0.526627 0.400501 0.030798 -0.017006
C4    C     C_R   0.002854 0.461055 0.587379 -0.011784
C5    C     C_R   0.033376 0.524929 0.400074 -0.020141
C6    C     C_3   0.163761 0.151989 0.799382 -0.737366
C7    C     C_3   0.808844 0.823908 0.238174 -0.779533
C8    C     C_3   0.088961 0.827996 0.202871 -0.757470
C9    C     C_3   0.773210 0.299590 0.785526 -0.741973
C10   C     C_3   0.802030 0.166395 0.149826 -0.712370
C11   C     C_3   0.229272 0.816434 0.837802 -0.730788
C12   C     C_3   0.121293 0.023723 0.692738 -0.724197
C13   C     C_R   0.065910 0.669181 0.537290 0.004365
C14   C     C_3   0.878114 0.890698 0.373570 -0.697199
C15   C     C_3   0.716335 0.134413 0.003011 -0.754612
C16   C     C_3   0.364123 0.877703 0.905681 -0.694349
C17   C     C_3   0.045226 0.687460 0.119671 -0.748056
C18   C     C_3   0.878108 0.392296 0.873868 -0.705461
C19   C     C_1   0.390902 0.151467 0.751034 0.212758
C20   C     C_1   0.605192 0.853574 0.255054 0.250215
C21   C     C_1   0.157573 0.749285 0.395437 0.251199
C22   C     C_1   0.849013 0.256149 0.601623 0.242252
C23   C     C_1   0.752235 0.390531 0.151152 0.216838
C24   C     C_R   0.943339 0.330727 0.457582 0.024912
C25   C     C_1   0.258925 0.604829 0.851769 0.195589
C26   C     C_1   0.191427 0.137892 0.468919 0.198888
C27   C     C_1   0.755842 0.119422 0.387608 0.238156
C28   C     C_1   0.467669 0.193599 0.136699 0.185198
C29   C     C_1   0.384537 0.758363 0.123402 0.180789
C30   C     C_1   0.140200 0.461517 0.192883 0.196252
C31   C     C_1   0.113268 0.387491 0.755276 0.187869
C32   C     C_R   0.452467 0.996267 0.450173 0.008417
C33   C     C_R   0.537867 0.032187 0.540123 0.008511
C34   C     C_R   0.995177 0.451252 0.451617 0.008166
C35   C     C_R   0.032359 0.539911 0.537614 0.006882
C36   C     C_R   0.449057 0.451968 0.998711 0.010082
C37   C     C_R   0.537455 0.537181 0.037102 0.010864
C38   C     C_R   0.960815 0.179685 0.438540 0.913835
C39   C     C_R   0.673068 0.050640 0.543052 -0.017322
C40   C     C_R   0.038177 0.820490 0.561802 0.918373
C41   C     C_R   0.179645 0.438818 0.960432 0.925894
C42   C     C_R   0.820453 0.561815 0.038271 0.927307
C43   C     C_R   0.438558 0.961103 0.179518 0.913692
C44   C     C_R   0.561896 0.037888 0.820607 0.921630
C45   C     C_R   0.563166 0.820682 0.035388 0.912481
C46   C     C_R   0.430743 0.176509 0.979024 0.932947
C47   C     C_R   0.032935 0.564176 0.820918 0.916944
C48   C     C_R   0.979724 0.430478 0.176251 0.936720
C49   C     C_R   0.820773 0.034214 0.563713 0.908074
C50   C     C_R   0.004639 0.430908 0.313076 -0.005901
C51   C     C_R   0.176235 0.979832 0.430530 0.932473
C52   C     C_R   0.408512 0.980964 0.404219 0.047864
C53   C     C_R   0.582830 0.047135 0.585598 0.037540
C54   C     C_R   0.978948 0.405713 0.407865 0.047307
C55   C     C_R   0.046754 0.585233 0.583168 0.035137
C56   C     C_R   0.404396 0.408315 0.981201 0.045368
C57   C     C_R   0.583178 0.582313 0.051616 0.035817
C58   C     C_R   0.270374 0.978303 0.392408 -0.114775
C59   C     C_R   0.722034 0.054155 0.593360 -0.111616
C60   C     C_R   0.977551 0.392586 0.270276 -0.115502
C61   C     C_R   0.046454 0.543803 0.674218 -0.001272
C62   C     C_R   0.051372 0.593881 0.722755 -0.110789
C63   C     C_R   0.393256 0.270782 0.976527 -0.114393
C64   C     C_R   0.591896 0.721807 0.057004 -0.113795
C65   C     C_R   0.590296 0.059993 0.721592 -0.125848
C66   C     C_R   0.408167 0.943918 0.278103 -0.114670
C67   C     C_R   0.720866 0.590095 0.061674 -0.124789
C68   C     C_R   0.278756 0.408554 0.942453 -0.111766
C69   C     C_R   0.060590 0.721007 0.590593 -0.125572
C70   C     C_R   0.942108 0.279017 0.407814 -0.115267
C71   C     C_R   0.440302 0.086790 0.698715 -0.051456
C72   C     C_R   0.432040 0.313311 0.003473 0.000268
C73   C     C_R   0.554858 0.921182 0.304011 -0.028186
C74   C     C_R   0.096324 0.693417 0.441021 -0.038653
C75   C     C_R   0.912861 0.309448 0.553375 -0.037498
C76   C     C_R   0.698535 0.440262 0.087944 -0.053018
C77   C     C_R   0.303595 0.554380 0.922609 -0.030988
C78   C     C_R   0.264277 0.057917 0.492165 0.000965
C79   C     C_R   0.710040 0.051644 0.451132 -0.009109
C80   C     C_R   0.493665 0.264074 0.055952 -0.011837
C81   C     C_R   0.447496 0.709389 0.057842 -0.009312
C82   C     C_R   0.061223 0.488635 0.264586 0.002036
C83   C     C_R   0.540401 0.672587 0.055402 0.002811
C84   C     C_R   0.044144 0.452592 0.711843 0.001883
C85   C     C_R   0.318314 0.947535 0.317443 -0.271147
C86   C     C_R   0.679306 0.061009 0.680095 -0.276728
C87   C     C_R   0.946309 0.317794 0.318128 -0.271800
C88   C     C_R   0.059595 0.680268 0.679815 -0.276502
C89   C     C_R   0.318564 0.319003 0.945061 -0.277083
C90   C     C_R   0.679240 0.678998 0.063104 -0.280624
C91   C     C_R   0.677523 0.010655 0.417393 -0.035098
C92   C     C_R   0.305394 0.056400 0.550834 -0.061772
C93   C     C_R   0.002952 0.420498 0.677832 -0.059824
C94   C     C_R   0.537004 0.063053 0.670954 0.024818
C95   C     C_R   0.063853 0.545817 0.305205 -0.042212
C96   C     C_R   0.412553 0.676047 0.018465 -0.080873
C97   C     C_R   0.552261 0.305168 0.055073 -0.062608
C98   C     C_R   0.599325 0.948109 0.341378 -0.027970
C99   C     C_R   0.393671 0.070026 0.655180 -0.081343
C100  C     C_R   0.338359 0.598100 0.953040 -0.076100
C101  C     C_R   0.655279 0.393741 0.070744 -0.085679
C102  C     C_R   0.936105 0.349335 0.598654 -0.040003
C103  C     C_R   0.084503 0.647125 0.393103 -0.037713
C104  C     C_R   0.732287 0.974807 0.343398 0.142327
C105  C     C_R   0.458398 0.947209 0.328189 0.018852
C106  C     C_R   0.253726 0.081787 0.631799 0.179446
C107  C     C_R   0.958706 0.352371 0.732518 0.129706
C108  C     C_R   0.099913 0.620461 0.253793 0.143444
C109  C     C_R   0.337747 0.729812 0.982961 0.167635
C110  C     C_R   0.635253 0.253934 0.077366 0.181273
C111  C     C_R   0.693681 0.943113 0.305229 0.144024
C112  C     C_R   0.297802 0.082921 0.686928 0.174382
C113  C     C_R   0.301026 0.691824 0.949913 0.177116
C114  C     C_R   0.689160 0.298483 0.080329 0.173494
C115  C     C_R   0.921200 0.320259 0.694269 0.174653
C116  C     C_R   0.669697 0.536784 0.065692 0.021351
C117  C     C_R   0.110244 0.670522 0.296805 0.155436
C118  C     C_R   0.546829 0.982816 0.417130 -0.018124
C119  C     C_R   0.444319 0.041546 0.575670 -0.001161
C120  C     C_R   0.977546 0.420601 0.546005 -0.016402
C121  C     C_R   0.047234 0.572797 0.443612 -0.018420
C122  C     C_R   0.414289 0.545824 0.987799 -0.009579
C123  C     C_R   0.574493 0.444020 0.044200 -0.004621
C124  C     C_R   0.587767 0.007026 0.458842 -0.022394
C125  C     C_R   0.400817 0.029152 0.527136 -0.018549
C126  C     C_R   0.455144 0.586636 0.013424 -0.012470
H1    H     H_    0.283217 0.935045 0.284065 0.209157
H2    H     H_    0.156244 0.210997 0.738535 0.242473
H3    H     H_    0.775457 0.962906 0.171819 0.216551
H4    H     H_    0.820537 0.798263 0.182101 0.246971
H5    H     H_    0.780305 0.777110 0.303293 0.254099
H6    H     H_    0.875456 0.823763 0.236236 0.224770
H7    H     H_    0.210860 0.723949 0.194538 0.232650
H8    H     H_    0.093074 0.883762 0.218866 0.237360
H9    H     H_    0.017437 0.826161 0.229789 0.236623
H10   H     H_    0.109409 0.842826 0.128142 0.234981
H11   H     H_    0.897173 0.207689 0.803115 0.230940
H12   H     H_    0.718250 0.059856 0.718604 0.201352
H13   H     H_    0.736587 0.248263 0.810552 0.239657
H14   H     H_    0.746892 0.356167 0.730626 0.244436
H15   H     H_    0.758357 0.325974 0.841928 0.242943
H16   H     H_    0.829243 0.284992 0.049687 0.221397
H17   H     H_    0.853125 0.166890 0.175215 0.238140
H18   H     H_    0.832193 0.108055 0.121339 0.233581
H19   H     H_    0.739945 0.157598 0.207030 0.245502
H20   H     H_    0.169403 0.717664 0.943873 0.225187
H21   H     H_    0.192621 0.812465 0.798327 0.228253
H22   H     H_    0.301757 0.808521 0.797054 0.243900
H23   H     H_    0.934206 0.283984 0.283173 0.207823
H24   H     H_    0.198719 0.884409 0.849394 0.258522
H25   H     H_    0.119390 0.162058 0.633533 0.223833
H26   H     H_    0.084496 0.011061 0.766014 0.216068
H27   H     H_    0.175843 0.960758 0.680890 0.239795
H28   H     H_    0.072281 0.041282 0.655811 0.255528
H29   H     H_    0.860177 0.966533 0.246185 0.215975
H30   H     H_    0.947612 0.896512 0.352624 0.242284
H31   H     H_    0.882828 0.823727 0.371663 0.220089
H32   H     H_    0.845131 0.893657 0.444493 0.261177
H33   H     H_    0.630905 0.118829 0.135818 0.232671
H34   H     H_    0.058386 0.719059 0.718522 0.199681
H35   H     H_    0.744055 0.059386 0.017947 0.215200
H36   H     H_    0.773869 0.164133 0.962717 0.251311
H37   H     H_    0.667889 0.158715 0.963273 0.252670
H38   H     H_    0.268529 0.842892 0.031569 0.220047
H39   H     H_    0.351154 0.937910 0.925879 0.230100
H40   H     H_    0.352930 0.899895 0.838691 0.227353
H41   H     H_    0.436789 0.838222 0.898639 0.248606
H42   H     H_    0.182289 0.617687 0.121755 0.225732
H43   H     H_    0.041316 0.758694 0.077472 0.225522
H44   H     H_    0.979222 0.686527 0.173082 0.240894
H45   H     H_    0.285388 0.284251 0.931750 0.207123
H46   H     H_    0.056419 0.646718 0.076398 0.252767
H47   H     H_    0.997533 0.286328 0.850286 0.214185
H48   H     H_    0.904369 0.388476 0.926041 0.254652
H49   H     H_    0.810952 0.379589 0.907466 0.224482
H50   H     H_    0.868160 0.462339 0.826875 0.245354
H51   H     H_    0.718266 0.717970 0.061160 0.201114
H52   H     H_    0.283613 0.054444 0.825707 0.220874
H53   H     H_    0.161757 0.174923 0.853390 0.232491
H54   H     H_    0.105720 0.123683 0.825692 0.241101
N1    N     N_2   0.248104 0.081851 0.779084 -0.293942
N2    N     N_2   0.303109 0.824930 0.972307 -0.296283
N3    N     N_2   0.120370 0.651544 0.157731 -0.304100
N4    N     N_2   0.940596 0.323760 0.828229 -0.322624
N5    N     N_1   0.352004 0.203507 0.792328 -0.192056
N6    N     N_1   0.644170 0.799119 0.216477 -0.216616
N7    N     N_1   0.207135 0.793232 0.359820 -0.191811
N8    N     N_1   0.797714 0.213930 0.639179 -0.211941
N9    N     N_1   0.794642 0.351462 0.202050 -0.192997
N10   N     N_1   0.223759 0.643981 0.794792 -0.219995
N11   N     N_1   0.135245 0.203520 0.448805 -0.212388
N12   N     N_2   0.747083 0.915195 0.225329 -0.306381
N13   N     N_1   0.792357 0.174036 0.338738 -0.207902
N14   N     N_1   0.445270 0.139239 0.202720 -0.209620
N15   N     N_1   0.335065 0.797772 0.175662 -0.200343
N16   N     N_1   0.204903 0.437859 0.137734 -0.214575
N17   N     N_1   0.169277 0.337876 0.789874 -0.208604
N18   N     N_2   0.149485 0.743002 0.241214 -0.284855
N19   N     N_2   0.870011 0.257643 0.752647 -0.300379
N20   N     N_2   0.781913 0.249716 0.079110 -0.299195
N21   N     N_2   0.219875 0.747220 0.924308 -0.296480
N22   N     N_2   0.157447 0.098991 0.663192 -0.302845
N23   N     N_2   0.827763 0.963835 0.313273 -0.320049
N24   N     N_2   0.671007 0.158788 0.086756 -0.302938
O1    O     O_R   0.982940 0.138950 0.510160 -0.629525
O2    O     O_R   0.982940 0.510160 0.138950 -0.638169
O3    O     O_R   0.861050 0.017060 0.489840 -0.631291
O4    O     O_R   0.138950 0.982940 0.510160 -0.640055
O5    O     O_R   0.867700 0.025880 0.612340 -0.620222
O6    O     O_R   0.132300 0.974120 0.387660 -0.622973
O7    O     O_R   0.025880 0.612340 0.867700 -0.624255
O8    O     O_R   0.974120 0.387660 0.132300 -0.623909
O9    O     O_R   0.612340 0.867700 0.025880 -0.619154
O10   O     O_R   0.387660 0.132300 0.974120 -0.624666
O11   O     O_R   0.387660 0.974120 0.132300 -0.619367
O12   O     O_R   0.017060 0.861050 0.489840 -0.634123
O13   O     O_R   0.612340 0.025880 0.867700 -0.623695
O14   O     O_R   0.132300 0.387660 0.974120 -0.619975
O15   O     O_R   0.867700 0.612340 0.025880 -0.622965
O16   O     O_R   0.974120 0.132300 0.387660 -0.618896
O17   O     O_R   0.025880 0.867700 0.612340 -0.624460
O18   O     O_R   0.138950 0.510160 0.982940 -0.636320
O19   O     O_R   0.861050 0.489840 0.017060 -0.648145
O20   O     O_R   0.510160 0.982940 0.138950 -0.621600
O21   O     O_R   0.489840 0.017060 0.861050 -0.639108
O22   O     O_R   0.489840 0.861050 0.017060 -0.634995
O23   O     O_R   0.510160 0.138950 0.982940 -0.639414
O24   O     O_R   0.017060 0.489840 0.861050 -0.636512
Zn1   Zn    Zn3+2 0.004880 0.004880 0.583590 0.940846
Zn2   Zn    Zn3+2 0.995120 0.995120 0.416410 0.956077
Zn3   Zn    Zn3+2 0.004880 0.583590 0.004880 0.930992
Zn4   Zn    Zn3+2 0.995120 0.416410 0.995120 0.935415
Zn5   Zn    Zn3+2 0.583590 0.004880 0.004880 0.955624
Zn6   Zn    Zn3+2 0.416410 0.995120 0.995120 0.942488

loop_
_geom_bond_atom_site_label_1
_geom_bond_atom_site_label_2
_ccdc_geom_bond_type
C109  N2    S    
C38   C70   S    
C30   C82   S    
H7    N18   S    
C1    C78   A    
C38   O1    A    
C47   O7    A    
C6    H53   S    
C8    H10   S    
C12   H26   S    
C15   H36   S    
C8    N18   S    
C12   H28   S    
C64   C90   A    
C91   C104  A    
C67   C116  A    
C43   O11   A    
C92   C125  A    
C66   C85   A    
C41   O14   A    
C17   H46   S    
C24   C70   A    
C65   C86   A    
C71   C94   A    
C106  C112  A    
C98   C111  A    
C45   O22   A    
C26   C78   S    
O7    Zn3   S    
C14   H32   S    
C25   C77   S    
O21   Zn6   S    
C15   H37   S    
H20   N21   S    
C27   C79   S    
C25   N10   T    
C62   C88   A    
C80   C97   A    
C9    H14   S    
O9    Zn5   S    
C11   H22   S    
C49   O5    A    
C16   H41   S    
C24   C54   A    
H3    N12   S    
C5    C121  A    
C77   C100  A    
C110  N24   S    
C11   N21   S    
C115  N19   S    
C3    C97   A    
C32   C52   A    
C7    H4    S    
C102  C115  A    
C81   C83   A    
C37   C123  A    
C19   C71   S    
O13   Zn5   S    
C15   N24   S    
C47   O24   A    
C49   O3    A    
H47   N4    S    
C16   H40   S    
C56   C72   A    
C75   C102  A    
C28   N14   T    
C46   O23   A    
C57   C83   A    
C21   N7    T    
C27   N13   T    
C12   N22   S    
C41   C68   S    
C44   O21   A    
C12   H27   S    
C79   C91   A    
C41   O18   A    
C109  C113  A    
O4    Zn1   S    
C84   C93   A    
C14   H30   S    
C18   H49   S    
O2    Zn3   S    
C90   H51   S    
C111  N12   S    
C114  N20   S    
C14   N23   S    
C8    H9    S    
C34   C120  A    
C101  C114  A    
C63   C89   A    
C44   C65   S    
C103  C117  A    
O11   Zn6   S    
C22   C75   S    
C47   C62   S    
H29   N23   S    
C70   C87   A    
C5    C95   A    
C60   C87   A    
C3    C123  A    
C48   C60   S    
C57   C116  A    
C33   C53   A    
C73   C98   A    
O23   Zn5   S    
C30   N16   T    
C40   C69   S    
C44   O13   A    
C6    N1    S    
C35   C55   A    
C104  N23   S    
H11   N19   S    
C35   C121  A    
C89   H45   S    
C100  C122  A    
C19   N5    T    
C42   O15   A    
C32   C118  A    
C81   C96   A    
C9    H15   S    
C17   H44   S    
C118  C124  A    
C14   H31   S    
C46   O10   A    
C29   N15   T    
C71   C99   A    
C21   C74   S    
C67   C90   A    
C31   C84   S    
C39   C79   A    
C32   C125  A    
C122  C126  A    
C86   H12   S    
C36   C122  A    
O20   Zn5   S    
C64   C83   A    
C29   C81   S    
C36   C56   A    
C38   O16   A    
C106  N22   S    
C17   N3    S    
C11   H24   S    
O12   Zn2   S    
C8    H8    S    
C18   N4    S    
C16   H39   S    
H42   N3    S    
C39   C59   A    
C5    C34   A    
C40   O12   A    
C68   C89   A    
O6    Zn2   S    
C96   C126  A    
C24   C75   A    
C51   C58   S    
C101  C123  A    
C13   C74   A    
C107  C115  A    
C7    H6    S    
C69   C88   A    
C48   O8    A    
C18   H48   S    
C92   C106  A    
C65   C94   A    
C6    H2    S    
O18   Zn3   S    
C34   C54   A    
C113  N21   S    
C91   C124  A    
C17   H43   S    
C42   C67   S    
C7    N12   S    
C85   H1    S    
C66   C105  A    
C48   O2    A    
C42   O19   A    
C103  C121  A    
C58   C85   A    
C119  C125  A    
O24   Zn4   S    
C102  C120  A    
O19   Zn4   S    
C50   C82   A    
C37   C126  A    
O14   Zn4   S    
O1    Zn1   S    
C76   C101  A    
C110  C114  A    
C82   C95   A    
C108  N3    S    
C6    H54   S    
C53   C94   A    
C51   O4    A    
H16   N20   S    
C108  C117  A    
C15   H35   S    
C4    C120  A    
C100  C113  A    
O15   Zn3   S    
C61   C84   A    
C10   N20   S    
C52   C105  A    
C104  C111  A    
C26   N11   T    
O3    Zn2   S    
C33   C119  A    
C112  N1    S    
C99   C119  A    
C96   C109  A    
C40   O17   A    
C45   C64   S    
C2    C68   A    
O22   Zn6   S    
O16   Zn2   S    
C107  N4    S    
C78   C92   A    
C31   N17   T    
C43   O20   A    
C59   C86   A    
C50   C60   A    
C7    H5    S    
C50   C54   A    
C2    C77   A    
C2    C56   A    
C1    C58   A    
C49   C59   S    
C97   C110  A    
C9    H13   S    
C51   O6    A    
C11   H21   S    
H33   N24   S    
C39   C53   A    
C46   C63   S    
C13   C69   A    
C3    C36   A    
C43   C66   S    
O8    Zn4   S    
C99   C112  A    
C55   C61   A    
C98   C118  A    
C76   C116  A    
C20   C73   S    
C16   N2    S    
C10   H17   S    
C88   H34   S    
C22   N8    T    
C61   C62   A    
C28   C80   S    
C1    C52   A    
C37   C57   A    
C4    C35   A    
H52   N1    S    
H38   N2    S    
C95   C108  A    
O5    Zn1   S    
C10   H19   S    
C20   N6    T    
C4    C93   A    
C45   O9    A    
C63   C72   A    
C72   C80   A    
C87   H23   S    
O17   Zn1   S    
C33   C124  A    
C23   C76   S    
O10   Zn6   S    
H25   N22   S    
C23   N9    T    
C10   H18   S    
C93   C107  A    
C117  N18   S    
C9    N19   S    
C73   C105  A    
C74   C103  A    
C13   C55   A    
C18   H50   S    
