data_str_m2_o10_o17_f0_pcu.sym.143
_audit_creation_date              2012-12-10T16:44:40-0500
_audit_creation_method            fapswitch 2.2
_symmetry_space_group_name_H-M    P1
_symmetry_Int_Tables_number       1
_space_group_crystal_system       triclinic
_cell_length_a                    15.038337
_cell_length_b                    8.734579
_cell_length_c                    7.470665
_cell_angle_alpha                 102.926248
_cell_angle_beta                  94.904996
_cell_angle_gamma                 93.21198
_cell_volume                      950.070175474

loop_
_atom_site_label
_atom_site_type_symbol
_atom_type_description
_atom_site_fract_x
_atom_site_fract_y
_atom_site_fract_z
_atom_type_partial_charge
C1    C     C_R   0.494504 0.200054 0.453989 0.789305
C2    C     C_R   0.505496 0.799946 0.546011 0.789314
C3    C     C_R   0.030120 0.376471 0.172448 -0.163714
C4    C     C_R   0.969875 0.623173 0.827614 -0.163804
C5    C     C_2   0.482152 0.032080 0.432369 0.189032
C6    C     C_2   0.517848 0.967920 0.567631 0.189030
C7    C     C_R   0.328788 0.498730 0.501136 0.790294
C8    C     C_R   0.671213 0.501260 0.498864 0.790308
C9    C     C_R   0.823056 0.566151 0.660350 -0.195556
C10   C     C_R   0.176945 0.433640 0.339690 -0.195515
C11   C     C_R   0.767963 0.503920 0.496957 -0.047354
C12   C     C_R   0.232038 0.496010 0.503045 -0.047342
C13   C     C_R   0.805080 0.442959 0.332859 -0.218703
C14   C     C_R   0.194919 0.556997 0.667125 -0.218745
C15   C     C_R   0.898100 0.443849 0.329624 0.003270
C16   C     C_R   0.101899 0.555976 0.670386 0.003236
C17   C     C_R   0.953391 0.502186 0.497843 0.022308
C18   C     C_R   0.046607 0.497621 0.502175 0.022278
C19   C     C_R   0.915431 0.564863 0.662285 0.058097
C20   C     C_R   0.084568 0.434897 0.337753 0.058191
C21   C     C_R   0.937667 0.383515 0.164998 0.385858
C22   C     C_R   0.062328 0.616162 0.835044 0.385981
Cu1   Cu    Cu3+1 0.510010 0.517380 0.684380 1.071993
Cu2   Cu    Cu3+1 0.489990 0.482620 0.315620 1.071997
H1    H     H_    0.059750 0.329112 0.046248 0.164641
H2    H     H_    0.940240 0.670409 0.953841 0.164618
N1    N     N_2   0.474890 0.456420 0.038520 0.155258
N2    N     N_2   0.525110 0.543580 0.961480 0.155254
O1    O     O_R   0.506510 0.286130 0.619770 -0.487618
O2    O     O_R   0.493490 0.713870 0.380230 -0.487612
O3    O     O_R   0.489600 0.256770 0.308360 -0.620714
O4    O     O_R   0.510400 0.743230 0.691640 -0.620711
O5    O     O_R   0.378710 0.514640 0.655720 -0.550418
O6    O     O_R   0.621290 0.485360 0.344280 -0.550416
O7    O     O_R   0.361800 0.485290 0.344300 -0.607138
O8    O     O_R   0.638200 0.514710 0.655700 -0.607149
H3    H     H_    0.793949 0.614460 0.786940 0.143150
H4    H     H_    0.206054 0.385264 0.213129 0.143106
H5    H     H_    0.760383 0.390868 0.210538 0.174237
H6    H     H_    0.239613 0.609200 0.789423 0.174242
O9    O     O_3   0.889277 0.329922 0.994757 -0.720599
H7    H     H_    0.838341 0.395786 0.987032 0.319770
O10   O     O_3   0.110709 0.669574 0.005304 -0.720655
H8    H     H_    0.161697 0.603789 0.012889 0.319779
O11   O     O_3   0.429946 0.940429 0.279458 -0.716255
H9    H     H_    0.403292 0.009094 0.203583 0.333990
O12   O     O_3   0.570054 0.059571 0.720542 -0.716247
H10   H     H_    0.596708 0.990906 0.796416 0.334006
O13   O     O_3   0.414905 0.353360 0.923728 -0.597411
H11   H     H_    0.383126 0.298288 0.004723 0.324264
O14   O     O_3   0.585095 0.646640 0.076272 -0.597408
H12   H     H_    0.616873 0.701712 0.995277 0.324277

loop_
_geom_bond_atom_site_label_1
_geom_bond_atom_site_label_2
_ccdc_geom_bond_type
C1    O3    A    
C4    H2    S    
O10   H8    S    
C11   C13   A    
O9    H7    S    
C22   O10   S    
Cu2   N1    S    
C2    O2    A    
C10   H4    S    
Cu1   O4    S    
C1    O1    A    
C17   C18   A    
Cu2   O3    S    
C3    C20   A    
C5    O11   S    
C16   C18   A    
C8    O6    A    
Cu1   N2    S    
C7    O5    A    
C2    C6    S    
C10   C12   A    
C8    C11   S    
C1    C5    S    
Cu1   O1    S    
C9    H3    S    
C17   C19   A    
C12   C14   A    
Cu1   O8    S    
C18   C20   A    
C9    C11   A    
C13   C15   A    
C8    O8    A    
C5    C6    D    
N2    O14   S    
C14   C16   A    
C7    C12   S    
C3    C21   A    
Cu2   O7    S    
C13   H5    S    
C6    O12   S    
Cu1   Cu2   S    
C14   H6    S    
O14   H12   S    
N1    O13   S    
C15   C21   A    
C3    H1    S    
C4    C22   A    
C2    O4    A    
O13   H11   S    
C21   O9    S    
N1    N2    D    
C15   C17   A    
Cu2   O2    S    
C16   C22   A    
O11   H9    S    
C4    C19   A    
C7    O7    A    
C9    C19   A    
Cu2   O6    S    
O12   H10   S    
C10   C20   A    
Cu1   O5    S    
