data_str_m2_o10_o28_f0_pcu.sym.16
_audit_creation_date              2012-10-26T20:18:14-0400
_audit_creation_method            fapswitch 2.2
_symmetry_space_group_name_H-M    P1
_symmetry_Int_Tables_number       1
_space_group_crystal_system       triclinic
_cell_length_a                    23.494492
_cell_length_b                    8.679785
_cell_length_c                    7.559068
_cell_angle_alpha                 103.551772
_cell_angle_beta                  95.57014
_cell_angle_gamma                 94.564989
_cell_volume                      1483.13993902

loop_
_atom_site_label
_atom_site_type_symbol
_atom_type_description
_atom_site_fract_x
_atom_site_fract_y
_atom_site_fract_z
_atom_type_partial_charge
C1    C     C_R   0.498164 0.199698 0.452716 0.549651
C2    C     C_R   0.707856 0.542268 0.666958 -0.093554
C3    C     C_R   0.242513 0.454953 0.640830 -0.016685
C4    C     C_R   0.767104 0.543729 0.667794 -0.018007
C5    C     C_R   0.209028 0.492234 0.496184 0.198122
C6    C     C_R   0.791243 0.505554 0.502973 0.193907
C7    C     C_2   0.497414 0.030988 0.427104 -0.134102
C8    C     C_2   0.502576 0.969009 0.572894 -0.133261
C9    C     C_R   0.391142 0.499094 0.499890 0.543493
C10   C     C_R   0.608934 0.501250 0.500116 0.544704
C11   C     C_R   0.886972 0.644948 0.559190 0.410743
C12   C     C_R   0.501833 0.800302 0.547284 0.547695
C13   C     C_R   0.113890 0.350809 0.452404 0.410747
C14   C     C_R   0.874654 0.360698 0.467210 0.405289
C15   C     C_R   0.126263 0.634500 0.556617 0.413468
C16   C     C_R   0.933894 0.355968 0.462718 0.020609
C17   C     C_R   0.067127 0.638610 0.563694 0.021136
C18   C     C_R   0.970609 0.499376 0.515710 -0.046055
C19   C     C_R   0.030399 0.495191 0.508498 -0.047177
C20   C     C_R   0.947529 0.646557 0.575493 0.034645
C21   C     C_R   0.053376 0.348230 0.445474 0.031802
C22   C     C_R   0.956481 0.211147 0.400510 -0.133655
C23   C     C_R   0.235205 0.532443 0.350404 0.057157
C24   C     C_R   0.044573 0.783053 0.628690 -0.132562
C25   C     C_R   0.015023 0.205694 0.383820 -0.013743
C26   C     C_R   0.985829 0.788653 0.641320 -0.014755
C27   C     C_2   0.031906 0.049368 0.289253 0.310478
C28   C     C_2   0.968491 0.944299 0.736416 0.313283
C29   C     C_2   0.200333 0.572814 0.196345 0.283206
C30   C     C_2   0.780281 0.430060 0.157503 0.277429
C31   C     C_2   0.440644 0.337097 0.935073 0.410384
C32   C     C_2   0.559436 0.662702 0.064906 0.414156
C33   C     C_R   0.755516 0.467411 0.333960 0.063854
C34   C     C_R   0.295032 0.533668 0.352913 -0.088883
C35   C     C_R   0.695766 0.466550 0.334688 -0.102322
C36   C     C_R   0.328562 0.497648 0.499163 -0.013930
C37   C     C_R   0.671649 0.503157 0.500547 -0.024037
C38   C     C_R   0.301901 0.458947 0.643418 -0.121948
Cu1   Cu    Cu3+1 0.506340 0.517380 0.684380 1.033330
Cu2   Cu    Cu3+1 0.493660 0.482620 0.315620 1.028659
H1    H     H_    0.927882 0.101371 0.355173 0.179651
H2    H     H_    0.507332 0.042372 0.712494 0.148424
H3    H     H_    0.013757 0.941350 0.320700 0.088371
H4    H     H_    0.988644 0.053562 0.713018 0.092464
H5    H     H_    0.153730 0.557851 0.184648 0.133711
H6    H     H_    0.826365 0.448049 0.154592 0.130120
H7    H     H_    0.430803 0.311236 0.790095 0.134001
H8    H     H_    0.569276 0.688581 0.209890 0.139490
H9    H     H_    0.073184 0.892609 0.676661 0.180150
H10   H     H_    0.315617 0.563930 0.241515 0.178510
H11   H     H_    0.668010 0.437335 0.205743 0.177371
H12   H     H_    0.326828 0.429798 0.757065 0.144321
H13   H     H_    0.690471 0.572119 0.796818 0.186461
H14   H     H_    0.222267 0.423184 0.751825 0.180708
H15   H     H_    0.794565 0.573633 0.797242 0.167038
H16   H     H_    0.492659 0.957626 0.287505 0.147416
N1    N     N_R   0.852441 0.503628 0.509948 -0.427491
N2    N     N_R   0.148178 0.492486 0.501065 -0.427264
N3    N     N_2   0.484110 0.456420 0.038520 -0.178564
N4    N     N_2   0.515890 0.543580 0.961480 -0.178729
O1    O     O_R   0.504120 0.286130 0.619770 -0.549222
O2    O     O_2   0.138839 0.214115 0.416170 -0.418031
O3    O     O_2   0.839201 0.223712 0.425712 -0.440385
O4    O     O_2   0.161909 0.771245 0.606508 -0.436945
O5    O     O_2   0.062076 0.038367 0.165068 -0.424817
O6    O     O_2   0.935332 0.952958 0.852294 -0.424733
O7    O     O_2   0.223251 0.624669 0.080899 -0.497710
O8    O     O_2   0.749444 0.377755 0.012640 -0.509560
O9    O     O_2   0.412010 0.257583 0.014305 -0.492193
O10   O     O_2   0.588103 0.742120 0.985654 -0.496260
O11   O     O_R   0.495880 0.713870 0.380230 -0.551933
O12   O     O_R   0.493410 0.256770 0.308360 -0.448097
O13   O     O_R   0.506590 0.743230 0.691640 -0.448480
O14   O     O_R   0.423230 0.514630 0.655730 -0.546466
O15   O     O_R   0.576770 0.485370 0.344270 -0.552910
O16   O     O_R   0.412530 0.485280 0.344320 -0.462811
O17   O     O_R   0.587470 0.514720 0.655680 -0.458111
O18   O     O_2   0.862328 0.782259 0.584356 -0.420768

loop_
_geom_bond_atom_site_label_1
_geom_bond_atom_site_label_2
_ccdc_geom_bond_type
Cu2   O11   S    
C28   O6    D    
C7    C8    D    
C5    N2    S    
C10   C37   S    
C23   C29   S    
C35   C37   A    
C24   C26   A    
C3    H14   S    
C22   H1    S    
C38   H12   S    
C14   O3    S    
C18   C19   A    
Cu1   O14   S    
C31   N3    S    
C17   C19   A    
C29   O7    D    
C13   O2    S    
C3    C38   A    
C22   C25   A    
C9    C36   S    
C15   O4    S    
C9    O16   A    
C18   C20   A    
N3    N4    D    
Cu2   N3    S    
C31   H7    S    
C12   O13   A    
C32   H8    S    
C6    N1    S    
C7    H16   S    
C10   O17   A    
Cu1   O1    S    
C11   C20   A    
C34   H10   S    
C17   C24   A    
C1    O12   A    
C4    C6    A    
Cu1   Cu2   S    
C32   O10   D    
C13   N2    A    
C28   H4    S    
Cu2   O16   S    
C29   H5    S    
C2    C4    A    
C27   O5    D    
C11   O18   S    
C10   O15   A    
C5    C23   A    
C8    C12   S    
C23   C34   A    
C13   C21   A    
C12   O11   A    
C4    H15   S    
C35   H11   S    
C15   N2    A    
C14   C16   A    
C9    O14   A    
C32   N4    S    
Cu1   O17   S    
C24   H9    S    
C15   C17   A    
C14   N1    A    
C21   C25   A    
C16   C22   A    
Cu2   O12   S    
C30   C33   S    
C19   C21   A    
C1    C7    S    
C30   H6    S    
C8    H2    S    
C3    C5    A    
C2    H13   S    
C1    O1    A    
Cu2   O15   S    
C25   C27   S    
C26   C28   S    
C6    C33   A    
C36   C38   A    
C2    C37   A    
C20   C26   A    
Cu1   N4    S    
C33   C35   A    
C34   C36   A    
Cu1   O13   S    
C27   H3    S    
C31   O9    D    
C16   C18   A    
C11   N1    A    
C30   O8    D    
