data_str_m9_o2_o19_f0_sra.sym.19
_audit_creation_date              2012-12-11T16:28:23-0500
_audit_creation_method            fapswitch 2.2
_symmetry_space_group_name_H-M    P1
_symmetry_Int_Tables_number       1
_space_group_crystal_system       triclinic
_cell_length_a                    16.557729
_cell_length_b                    7.254547
_cell_length_c                    15.221137
_cell_angle_alpha                 89.874239
_cell_angle_beta                  94.7709
_cell_angle_gamma                 89.859889
_cell_volume                      1821.99954522

loop_
_atom_site_label
_atom_site_type_symbol
_atom_type_description
_atom_site_fract_x
_atom_site_fract_y
_atom_site_fract_z
_atom_type_partial_charge
O1    O     O_R   0.663460 0.361760 0.165970 -0.533614
O2    O     O_R   0.336540 0.638240 0.834030 -0.533607
O3    O     O_R   0.836540 0.861760 0.334030 -0.548462
O4    O     O_R   0.163460 0.138240 0.665970 -0.548467
O5    O     O_R   0.827100 0.689870 0.163730 -0.545406
O6    O     O_R   0.172900 0.310130 0.836270 -0.545416
O7    O     O_R   0.672900 0.189870 0.336270 -0.531045
O8    O     O_R   0.327100 0.810130 0.663730 -0.531045
H1    H     H_    0.208568 0.103792 0.508905 0.129412
H2    H     H_    0.791416 0.896366 0.491112 0.129378
H3    H     H_    0.287139 0.509778 0.998757 0.110530
H4    H     H_    0.712861 0.490289 0.001240 0.110530
C1    C     C_R   0.853319 0.522909 0.143625 0.700543
C2    C     C_R   0.146681 0.477091 0.856375 0.700565
C3    C     C_R   0.646722 0.022944 0.356414 0.711137
C4    C     C_R   0.353278 0.977055 0.643585 0.711136
O9    O     O_R   0.663490 0.691370 0.155500 -0.530643
O10   O     O_R   0.336510 0.308630 0.844500 -0.530652
O11   O     O_R   0.836510 0.191370 0.344500 -0.520836
O12   O     O_R   0.163490 0.808630 0.655500 -0.520817
O13   O     O_R   0.671770 0.863320 0.325740 -0.521969
O14   O     O_R   0.328230 0.136680 0.674260 -0.521969
O15   O     O_R   0.828230 0.363320 0.174260 -0.514561
O16   O     O_R   0.171770 0.636680 0.825740 -0.514550
C5    C     C_R   0.635770 0.523170 0.134224 0.787395
C6    C     C_R   0.364230 0.476830 0.865776 0.787391
C7    C     C_R   0.864063 0.022424 0.365932 0.710809
C8    C     C_R   0.135937 0.977576 0.634068 0.710824
H5    H     H_    0.120925 0.214851 0.243631 0.154856
H6    H     H_    0.879058 0.785278 0.756384 0.154864
H7    H     H_    0.370337 0.575900 0.268003 0.124827
H8    H     H_    0.629664 0.424302 0.731985 0.124837
O17   O     O_3   0.752910 0.528800 0.305860 -0.371780
O18   O     O_3   0.247090 0.471200 0.694140 -0.371775
O19   O     O_3   0.747090 0.028800 0.194140 -0.375452
O20   O     O_3   0.252910 0.971200 0.805860 -0.375458
V1    V     V_3+5 0.749460 0.803010 0.239640 1.481099
V2    V     V_3+5 0.250540 0.196990 0.760360 1.481087
V3    V     V_3+5 0.750540 0.303010 0.260360 1.520890
V4    V     V_3+5 0.249460 0.696990 0.739640 1.520916
C9    C     C_1   0.468821 0.994779 0.530117 0.025854
C10   C     C_1   0.531179 0.005221 0.469883 0.025858
C11   C     C_1   0.031169 0.494820 0.969872 0.048145
C12   C     C_1   0.968831 0.505180 0.030128 0.048150
C13   C     C_R   0.032048 0.110648 0.325308 0.293942
C14   C     C_R   0.967951 0.889347 0.674692 0.293924
C15   C     C_R   0.465644 0.548260 0.180165 0.309233
C16   C     C_R   0.534357 0.451829 0.819830 0.309232
C17   C     C_R   0.109378 0.171739 0.309632 -0.212102
C18   C     C_R   0.890608 0.828366 0.690380 -0.212149
C19   C     C_R   0.384316 0.557794 0.200273 -0.285054
C20   C     C_R   0.615685 0.442356 0.799718 -0.285046
C21   C     C_R   0.172409 0.169656 0.376482 0.339167
C22   C     C_R   0.827569 0.830522 0.623539 0.339176
C23   C     C_R   0.320825 0.544140 0.134330 0.376375
C24   C     C_R   0.679175 0.456004 0.865661 0.376374
C25   C     C_R   0.157367 0.107088 0.459954 -0.152139
C26   C     C_R   0.842619 0.893027 0.540059 -0.152114
C27   C     C_R   0.338364 0.520326 0.047438 -0.146187
C28   C     C_R   0.661637 0.479744 0.952558 -0.146193
C29   C     C_R   0.078969 0.051723 0.480118 -0.048953
C30   C     C_R   0.921026 0.948307 0.519886 -0.048952
C31   C     C_R   0.419063 0.510269 0.023535 -0.086585
C32   C     C_R   0.580937 0.489755 0.976463 -0.086583
C33   C     C_R   0.013984 0.057357 0.412330 -0.012432
C34   C     C_R   0.986015 0.942640 0.587669 -0.012378
C35   C     C_R   0.484387 0.524381 0.090632 0.045075
C36   C     C_R   0.515613 0.475646 0.909367 0.045074
C37   C     C_R   0.065728 0.990253 0.566573 -0.115654
C38   C     C_R   0.934270 0.009745 0.433426 -0.115670
C39   C     C_R   0.434261 0.486136 0.933686 -0.119932
C40   C     C_R   0.565739 0.513867 0.066314 -0.119931
C41   C     C_1   0.415994 0.986201 0.581469 -0.150334
C42   C     C_1   0.584006 0.013799 0.418531 -0.150340
C43   C     C_1   0.083980 0.486285 0.918501 -0.128846
C44   C     C_1   0.916020 0.513715 0.081499 -0.128844
O21   O     O_3   0.749960 0.776331 0.638094 -0.642086
H9    H     H_    0.748824 0.738781 0.700664 0.292703
O22   O     O_3   0.250003 0.223982 0.361942 -0.642081
H10   H     H_    0.251132 0.261593 0.299381 0.292702
O23   O     O_3   0.759344 0.446653 0.847390 -0.645199
H11   H     H_    0.761899 0.427360 0.783194 0.288770
O24   O     O_3   0.240657 0.553562 0.152596 -0.645197
H12   H     H_    0.238101 0.572935 0.216786 0.288763
O25   O     O_3   0.977052 0.098712 0.252868 -0.634599
H13   H     H_    0.961952 0.966778 0.247606 0.280202
O26   O     O_3   0.022964 0.901178 0.747121 -0.634593
H14   H     H_    0.038053 0.033113 0.752430 0.280192
O27   O     O_3   0.526582 0.562335 0.247659 -0.646968
H15   H     H_    0.502832 0.579181 0.304816 0.289848
O28   O     O_3   0.473419 0.437777 0.752334 -0.646967
H16   H     H_    0.497172 0.421067 0.695168 0.289849

loop_
_geom_bond_atom_site_label_1
_geom_bond_atom_site_label_2
_ccdc_geom_bond_type
C26   C30   A    
O26   H14   S    
C23   C27   A    
C9    C10   S    
C8    C37   S    
O10   C6    A    
O23   H11   S    
C24   O23   S    
H5    C17   S    
O25   H13   S    
C30   C38   A    
C18   C22   A    
O18   V4    S    
C32   C36   A    
C21   O22   S    
C14   C34   A    
C16   C20   A    
O5    V1    S    
O12   V4    S    
C17   C21   A    
C34   C37   A    
C33   C38   A    
O14   V2    S    
C1    O15   A    
C35   C40   A    
C2    O16   A    
C12   C44   T    
H8    C20   S    
O17   V3    S    
H2    C26   S    
C16   O28   S    
O6    V2    S    
O11   C7    A    
O5    C1    A    
C22   O21   S    
O7    C3    A    
H6    C18   S    
O8    C4    A    
O1    C5    A    
C6    C39   S    
C15   O27   S    
H3    C27   S    
C15   C35   A    
O4    C8    A    
C11   C43   T    
C31   C35   A    
C10   C42   T    
C30   C34   A    
C4    C41   S    
H7    C19   S    
O28   H16   S    
C21   C25   A    
C15   C19   A    
O12   C8    A    
C19   C23   A    
O21   H9    S    
C24   C28   A    
C13   O25   S    
C11   C12   S    
O2    V4    S    
O6    C2    A    
O24   H12   S    
C1    C44   S    
C13   C17   A    
O2    C6    A    
C5    C40   S    
O9    V1    S    
C16   C36   A    
C7    C38   S    
O11   V3    S    
O4    V2    S    
C13   C33   A    
C23   O24   S    
C14   O26   S    
C22   C26   A    
C29   C37   A    
C4    O14   A    
O19   V1    S    
C31   C39   A    
C25   C29   A    
C14   C18   A    
C27   C31   A    
C28   C32   A    
O9    C5    A    
C2    C43   S    
O20   V2    S    
O10   V2    S    
C36   C39   A    
O15   V3    S    
O3    C7    A    
O16   V4    S    
H1    C25   S    
C32   C40   A    
O1    V3    S    
C9    C41   T    
O22   H10   S    
H4    C28   S    
C29   C33   A    
C3    O13   A    
C3    C42   S    
O13   V1    S    
O3    V1    S    
O7    V3    S    
O8    V4    S    
O27   H15   S    
C20   C24   A    
