data_str_m2_o4_o17_f0_pcu.sym.202
_audit_creation_date              2012-12-10T19:00:46-0500
_audit_creation_method            fapswitch 2.2
_symmetry_space_group_name_H-M    P1
_symmetry_Int_Tables_number       1
_space_group_crystal_system       triclinic
_cell_length_a                    14.997092
_cell_length_b                    10.805764
_cell_length_c                    9.69225
_cell_angle_alpha                 90.84556
_cell_angle_beta                  89.139985
_cell_angle_gamma                 92.989155
_cell_volume                      1568.21060602

loop_
_atom_site_label
_atom_site_type_symbol
_atom_type_description
_atom_site_fract_x
_atom_site_fract_y
_atom_site_fract_z
_atom_type_partial_charge
C1    C     C_R   0.499204 0.263077 0.498970 0.769795
C2    C     C_R   0.909405 0.591437 0.581842 0.056821
C3    C     C_R   0.945614 0.327054 0.339107 -0.225158
C4    C     C_R   0.038115 0.319260 0.340752 0.185232
C5    C     C_R   0.089764 0.399583 0.430510 0.099805
C6    C     C_R   0.046626 0.495318 0.505511 -0.077778
C7    C     C_R   0.096947 0.585211 0.583665 0.080170
C8    C     C_R   0.053702 0.672201 0.669672 0.153445
C9    C     C_R   0.959625 0.680705 0.662270 0.137091
C10   C     C_R   0.182794 0.389648 0.448427 0.137783
C11   C     C_R   0.232314 0.492057 0.503870 -0.070961
C12   C     C_R   0.329266 0.497888 0.500966 0.807208
C13   C     C_R   0.189969 0.588729 0.568739 -0.284939
C14   C     C_R   0.556206 0.070802 0.585308 0.125249
C15   C     C_R   0.501981 0.130248 0.494982 -0.077295
C16   C     C_R   0.453822 0.059813 0.395826 -0.220129
C17   C     C_R   0.452211 0.930704 0.399877 -0.226713
C18   C     C_R   0.500607 0.871322 0.500417 -0.091825
C19   C     C_R   0.556689 0.943305 0.587254 0.105853
C20   C     C_3   0.565674 0.944521 0.740671 -0.506126
C21   C     C_3   0.564589 0.084510 0.737587 -0.450254
C22   C     C_R   0.570063 0.550964 0.069958 0.208028
C23   C     C_R   0.499911 0.737314 0.500869 0.781886
C24   C     C_R   0.437838 0.428741 0.075135 0.244996
C25   C     C_R   0.434271 0.434496 0.926619 0.198991
C26   C     C_R   0.573409 0.541462 0.925390 0.180305
C27   C     C_3   0.625624 0.660446 0.910248 -0.508086
C28   C     C_3   0.616079 0.678427 0.066668 -0.095267
C29   C     C_R   0.670734 0.501266 0.499161 0.801211
C30   C     C_R   0.815449 0.588530 0.580026 -0.243662
C31   C     C_R   0.767297 0.502971 0.497628 -0.062374
C32   C     C_R   0.810765 0.417946 0.415798 -0.236707
C33   C     C_R   0.903247 0.414481 0.419822 0.092838
C34   C     C_R   0.953281 0.500354 0.503023 0.022805
Cu1   Cu    Cu3+1 0.500000 0.499980 0.640670 0.919437
Cu2   Cu    Cu3+1 0.500000 0.500020 0.359330 0.929535
H1    H     H_    0.777686 0.652535 0.640820 0.146291
H2    H     H_    0.410185 0.877368 0.328660 0.164150
H3    H     H_    0.506322 0.900831 0.794196 0.213810
H4    H     H_    0.631682 0.913312 0.772264 0.192414
H5    H     H_    0.504252 0.121319 0.788373 0.202129
H6    H     H_    0.629161 0.131884 0.767405 0.195713
H7    H     H_    0.695379 0.646182 0.875725 0.164134
H8    H     H_    0.589994 0.724341 0.846066 0.224747
H9    H     H_    0.681865 0.681364 0.118411 0.133864
H10   H     H_    0.772093 0.352172 0.352033 0.137390
H11   H     H_    0.905951 0.265108 0.272346 0.143568
H12   H     H_    0.231465 0.666169 0.607042 0.153975
H13   H     H_    0.413501 0.103935 0.321030 0.150726
N1    N     N_R   0.500570 0.500930 0.147930 -0.206213
N2    N     N_R   0.500570 0.500890 0.852020 -0.217268
O1    O     O_R   0.500000 0.319640 0.618810 -0.601083
O2    O     O_R   0.500010 0.319680 0.381230 -0.589862
O3    O     O_R   0.370250 0.499950 0.618800 -0.585302
O4    O     O_R   0.370260 0.499990 0.381220 -0.578739
O5    O     O_R   0.499990 0.680320 0.618770 -0.581294
O6    O     O_R   0.500000 0.680360 0.381190 -0.581414
O7    O     O_R   0.629740 0.500010 0.618780 -0.571963
O8    O     O_R   0.629750 0.500050 0.381200 -0.580312
C35   C     C_3   0.374991 0.334822 0.146280 -0.798103
H14   H     H_    0.304650 0.355487 0.130500 0.208492
H15   H     H_    0.380844 0.327524 0.256008 0.281948
H16   H     H_    0.387833 0.240270 0.107200 0.175126
C36   C     C_3   0.356003 0.364609 0.855579 -0.326817
C37   C     C_3   0.271460 0.439143 0.858819 -0.782393
H17   H     H_    0.287229 0.537897 0.834045 0.262032
H18   H     H_    0.223042 0.398531 0.783075 0.244949
H19   H     H_    0.237933 0.436935 0.961183 0.223261
H20   H     H_    0.372585 0.333562 0.751154 0.238696
H21   H     H_    0.339338 0.273249 0.901819 0.155813
C38   C     C_3   0.561273 0.792265 0.102864 -0.311574
C39   C     C_3   0.461779 0.779107 0.067239 -0.799865
H22   H     H_    0.451691 0.745448 0.959734 0.242656
H23   H     H_    0.425203 0.714394 0.138377 0.270771
H24   H     H_    0.432265 0.870938 0.077696 0.216046
H25   H     H_    0.569196 0.816158 0.213316 0.219255
H26   H     H_    0.591657 0.873365 0.046795 0.190610
C40   C     C_3   0.078337 0.234960 0.233503 -0.873827
H27   H     H_    0.134324 0.284964 0.178201 0.233755
H28   H     H_    0.100241 0.149385 0.281421 0.237195
H29   H     H_    0.029256 0.204931 0.153396 0.223481
C41   C     C_3   0.225728 0.265740 0.437403 -0.900782
H30   H     H_    0.287602 0.264258 0.498621 0.209321
H31   H     H_    0.179892 0.191977 0.481226 0.239698
H32   H     H_    0.243382 0.242211 0.329617 0.235051
C42   C     C_3   0.105823 0.750223 0.776108 -0.894368
H33   H     H_    0.173424 0.719075 0.795862 0.227660
H34   H     H_    0.110955 0.848720 0.744517 0.237911
H35   H     H_    0.072123 0.741796 0.878544 0.224805
C43   C     C_3   0.913264 0.786767 0.735992 -0.400223
C44   C     C_3   0.885027 0.883091 0.633431 -0.840612
H36   H     H_    0.944872 0.925293 0.579750 0.256849
H37   H     H_    0.838918 0.841594 0.555076 0.249166
H38   H     H_    0.850475 0.957495 0.689621 0.237854
H39   H     H_    0.855215 0.750592 0.798241 0.181278
H40   H     H_    0.955737 0.837829 0.812112 0.214215

loop_
_geom_bond_atom_site_label_1
_geom_bond_atom_site_label_2
_ccdc_geom_bond_type
C19   C20   S    
Cu2   O8    S    
C7    C8    A    
C26   C27   S    
Cu1   O7    S    
C5    C6    A    
C14   C21   S    
C30   C31   A    
C20   H4    S    
C42   H34   S    
C16   C17   A    
C3    C33   A    
C15   C16   A    
C35   H15   S    
C18   C19   A    
C1    O2    A    
Cu2   O2    S    
C27   H8    S    
C29   O8    A    
C8    C9    A    
C37   H18   S    
C1    C15   S    
C36   H21   S    
C8    C42   S    
C22   N1    A    
C2    C34   A    
C22   C28   S    
Cu1   O3    S    
C39   H24   S    
C33   C34   A    
C24   N1    A    
C28   H9    S    
C18   C23   S    
C23   O5    A    
C24   C25   A    
C39   H23   S    
Cu2   O6    S    
C44   H36   S    
C20   H3    S    
C40   H27   S    
C39   H22   S    
C10   C41   S    
C6    C34   A    
C30   H1    S    
C35   H14   S    
Cu1   Cu2   S    
C25   N2    A    
C4    C40   S    
C44   H37   S    
C31   C32   A    
C24   C35   S    
C37   H19   S    
C20   C21   S    
C17   C18   A    
C36   H20   S    
C16   H13   S    
C21   H5    S    
C37   H17   S    
C41   H31   S    
C35   H16   S    
Cu1   N2    S    
C28   C38   S    
C3    C4    A    
C38   H26   S    
Cu2   N1    S    
C23   O6    A    
Cu1   O5    S    
C42   H33   S    
C32   H10   S    
C14   C19   A    
C4    C5    A    
C42   H35   S    
C43   H39   S    
C9    C43   S    
C13   H12   S    
C11   C12   S    
C43   H40   S    
C6    C7    A    
C41   H32   S    
C2    C30   A    
C36   C37   S    
C5    C10   A    
C29   C31   S    
Cu2   O4    S    
C26   N2    A    
C32   C33   A    
C44   H38   S    
C11   C13   A    
C40   H29   S    
C43   C44   S    
C38   H25   S    
C3    H11   S    
C40   H28   S    
C17   H2    S    
C1    O1    A    
C12   O4    A    
C10   C11   A    
C21   H6    S    
C27   H7    S    
C7    C13   A    
C38   C39   S    
C29   O7    A    
C41   H30   S    
C22   C26   A    
Cu1   O1    S    
C14   C15   A    
C2    C9    A    
C25   C36   S    
C12   O3    A    
C27   C28   S    
