data_str_m3_o10_o17_f0_pcu.sym.189
_audit_creation_date              2012-12-10T16:52:06-0500
_audit_creation_method            fapswitch 2.2
_symmetry_space_group_name_H-M    P1
_symmetry_Int_Tables_number       1
_space_group_crystal_system       triclinic
_cell_length_a                    7.761963
_cell_length_b                    8.423437
_cell_length_c                    14.865572
_cell_angle_alpha                 90.78893
_cell_angle_beta                  85.928045
_cell_angle_gamma                 93.72238
_cell_volume                      967.407081846

loop_
_atom_site_label
_atom_site_type_symbol
_atom_type_description
_atom_site_fract_x
_atom_site_fract_y
_atom_site_fract_z
_atom_type_partial_charge
C1    C     C_R   0.543992 0.793250 0.483626 0.854556
C2    C     C_R   0.453399 0.205949 0.488957 0.967650
C3    C     C_R   0.633297 0.775369 0.952719 -0.022316
C4    C     C_R   0.366585 0.224396 0.047585 -0.014988
C5    C     C_2   0.562987 0.952894 0.448907 -0.337749
C6    C     C_2   0.425042 0.043561 0.459280 -0.213461
C7    C     C_R   0.502410 0.499913 0.672771 0.899991
C8    C     C_R   0.497565 0.499937 0.327260 0.857522
C9    C     C_R   0.431121 0.364226 0.188734 -0.173113
C10   C     C_R   0.569346 0.635400 0.811490 -0.206115
C11   C     C_R   0.491918 0.501129 0.232394 -0.056620
C12   C     C_R   0.508034 0.498699 0.767767 -0.077753
C13   C     C_R   0.551279 0.637920 0.186383 -0.230235
C14   C     C_R   0.448046 0.362117 0.813866 -0.208137
C15   C     C_R   0.554487 0.638268 0.093365 0.141495
C16   C     C_R   0.444979 0.361679 0.906902 0.136301
C17   C     C_R   0.495284 0.499875 0.047104 0.029895
C18   C     C_R   0.504427 0.499969 0.953155 0.033184
C19   C     C_R   0.428070 0.361569 0.095079 0.094601
C20   C     C_R   0.571954 0.638163 0.905184 0.103109
C21   C     C_R   0.620048 0.774083 0.046620 -0.318549
C22   C     C_R   0.379398 0.225849 0.953673 -0.318808
H1    H     H_    0.392912 0.260362 0.229021 0.187263
H2    H     H_    0.608213 0.739130 0.771234 0.188094
H3    H     H_    0.597597 0.742538 0.223253 0.139497
H4    H     H_    0.401303 0.257640 0.777048 0.147566
H5    H     H_    0.665854 0.878570 0.083713 0.161467
H6    H     H_    0.333410 0.121418 0.916598 0.155650
H7    H     H_    0.013455 0.381659 0.431941 0.234748
H8    H     H_    0.986549 0.618428 0.567997 0.210656
N1    N     N_2   0.950330 0.457950 0.475660 -0.151185
N2    N     N_2   0.049670 0.542050 0.524340 -0.172155
O1    O     O_R   0.389250 0.738570 0.505970 -0.616617
O2    O     O_R   0.610750 0.261430 0.494030 -0.580007
O3    O     O_R   0.678390 0.711620 0.490370 -0.633100
O4    O     O_R   0.321610 0.288380 0.509630 -0.582271
O5    O     O_R   0.355420 0.513510 0.639950 -0.597957
O6    O     O_R   0.644580 0.486490 0.360050 -0.587782
O7    O     O_R   0.644560 0.486560 0.624350 -0.609285
O8    O     O_R   0.355440 0.513440 0.375650 -0.644814
Zn1   Zn    Zn3+2 0.306940 0.517990 0.510420 0.989197
Zn2   Zn    Zn3+2 0.693060 0.482010 0.489580 1.008926
C23   C     C_2   0.715300 0.921930 0.909314 0.381804
H9    H     H_    0.702220 0.036036 0.943137 0.079208
O9    O     O_2   0.807206 0.916743 0.839375 -0.561951
C24   C     C_2   0.284857 0.077731 0.091055 0.382133
H10   H     H_    0.297432 0.963729 0.057051 0.075734
O10   O     O_2   0.193785 0.082707 0.161291 -0.565550
C25   C     C_2   0.730841 0.006653 0.400252 0.484707
H11   H     H_    0.844642 0.941133 0.407086 0.121183
O11   O     O_2   0.740569 0.117177 0.347390 -0.550498
C26   C     C_2   0.245052 0.980226 0.443389 0.451736
H12   H     H_    0.224970 0.880432 0.397454 0.090190
O12   O     O_2   0.118852 0.037253 0.481738 -0.577048

loop_
_geom_bond_atom_site_label_1
_geom_bond_atom_site_label_2
_ccdc_geom_bond_type
N2    Zn1   S    
N1    Zn2   S    
C9    C11   A    
N1    N2    D    
O2    Zn2   S    
C15   C21   A    
C23   H9    S    
O1    Zn1   S    
C2    O2    A    
C13   C15   A    
C17   C18   A    
C7    O5    A    
C1    O1    A    
C3    C20   A    
H7    N1    S    
C4    C24   S    
C14   H4    S    
H8    N2    S    
C23   O9    D    
C13   H3    S    
O4    Zn1   S    
C2    C6    S    
C10   C12   A    
C8    C11   S    
C1    C5    S    
C3    C23   S    
C22   H6    S    
O8    Zn1   S    
C17   C19   A    
C12   C14   A    
C26   O12   D    
O6    Zn2   S    
O7    Zn2   S    
C18   C20   A    
C8    O6    A    
O5    Zn1   S    
C5    C6    D    
C21   H5    S    
C24   O10   D    
C7    C12   S    
C5    C25   S    
C3    C21   A    
C11   C13   A    
C4    C22   A    
C26   H12   S    
C1    O3    A    
C16   C18   A    
C25   H11   S    
C2    O4    A    
C15   C17   A    
O3    Zn2   S    
C7    O7    A    
C24   H10   S    
C9    H1    S    
C10   H2    S    
C16   C22   A    
C8    O8    A    
C6    C26   S    
C14   C16   A    
C4    C19   A    
C9    C19   A    
C10   C20   A    
C25   O11   D    
