data_str_m9_o2_o25_f0_sra.sym.24
_audit_creation_date              2012-12-11T16:33:22-0500
_audit_creation_method            fapswitch 2.2
_symmetry_space_group_name_H-M    P1
_symmetry_Int_Tables_number       1
_space_group_crystal_system       triclinic
_cell_length_a                    6.951905
_cell_length_b                    18.272454
_cell_length_c                    20.127076
_cell_angle_alpha                 68.353265
_cell_angle_beta                  90.362272
_cell_angle_gamma                 90.592874
_cell_volume                      2376.26405672

loop_
_atom_site_label
_atom_site_type_symbol
_atom_type_description
_atom_site_fract_x
_atom_site_fract_y
_atom_site_fract_z
_atom_type_partial_charge
O1    O     O_R   0.488960 0.443750 0.941980 -0.520834
O2    O     O_R   0.823890 0.406510 0.087590 -0.530135
O3    O     O_R   0.999680 0.556250 0.058020 -0.512622
C1    C     C_R   0.655060 0.384002 0.115369 0.807981
O4    O     O_R   0.818360 0.434410 0.944340 -0.526794
O5    O     O_R   0.994110 0.584350 0.913750 -0.535160
C2    C     C_R   0.649337 0.420347 0.923885 0.716796
O6    O     O_R   0.494530 0.415650 0.086250 -0.544831
O7    O     O_3   0.662590 0.549160 0.990130 -0.367811
V1    V     V_3+5 0.935320 0.490880 0.001830 1.594667
O8    O     O_R   0.324180 0.593490 0.912410 -0.537456
C3    C     C_R   0.155333 0.615209 0.884082 0.775909
O9    O     O_R   0.329720 0.565590 0.055660 -0.534941
C4    C     C_R   0.161644 0.579822 0.076016 0.724871
V2    V     V_3+5 0.435990 0.509120 0.998170 1.570892
O10   O     O_3   0.158850 0.450840 0.009870 -0.367193
C5    C     C_3   0.068463 0.703341 0.314573 -0.141419
C6    C     C_3   0.250692 0.690754 0.276640 0.457982
H1    H     H_    0.018559 0.664213 0.368368 0.220481
H2    H     H_    0.454558 0.800514 0.260645 0.210565
C7    C     C_1   0.153918 0.625940 0.121158 -0.064382
C8    C     C_1   0.111228 0.874531 0.378225 -0.066761
C9    C     C_3   0.953902 0.722727 0.243534 -0.173548
C10   C     C_3   0.137651 0.709953 0.206568 -0.017875
C11   C     C_3   0.011370 0.810362 0.222187 0.441105
C12   C     C_3   0.124582 0.791125 0.292253 -0.032969
C13   C     C_3   0.193650 0.797766 0.184221 -0.182544
C14   C     C_3   0.308250 0.778353 0.255263 -0.224467
C15   C     C_1   0.146571 0.664023 0.159405 0.153199
C16   C     C_1   0.117206 0.836783 0.339669 0.136053
H3    H     H_    0.243445 0.836833 0.130388 0.212869
H4    H     H_    0.807626 0.700533 0.238168 0.215830
C17   C     C_R   0.075430 0.770192 0.879432 -0.210545
C18   C     C_R   0.033917 0.844576 0.879726 0.452153
C19   C     C_R   0.018726 0.908575 0.815563 -0.120144
C20   C     C_R   0.045793 0.898650 0.750898 -0.236726
C21   C     C_R   0.088346 0.823819 0.749021 0.065772
C22   C     C_R   0.102616 0.758088 0.814465 -0.003174
C23   C     C_R   0.119547 0.814325 0.683344 -0.060553
C24   C     C_R   0.163666 0.738910 0.682799 -0.054904
C25   C     C_R   0.170053 0.671233 0.747971 -0.099485
C26   C     C_R   0.143711 0.682043 0.814361 -0.086097
C27   C     C_R   0.199345 0.730035 0.617118 -0.359424
C28   C     C_R   0.239357 0.657101 0.614348 0.565727
C29   C     C_R   0.239322 0.590537 0.676378 0.633308
C30   C     C_R   0.201564 0.595826 0.742751 0.154162
H5    H     H_    0.086297 0.722363 0.930730 0.111265
H6    H     H_    0.986567 0.966410 0.815644 0.194186
H7    H     H_    0.033689 0.950401 0.702500 0.135626
H8    H     H_    0.196925 0.779569 0.566763 0.162734
H9    H     H_    0.799885 0.347807 0.431638 0.198159
C31   C     C_R   0.551794 0.097025 0.243636 0.323957
C32   C     C_R   0.507862 0.091812 0.177707 -0.058513
C33   C     C_R   0.504493 0.158340 0.115847 -0.136568
C34   C     C_R   0.548755 0.231367 0.118395 -0.158703
C35   C     C_R   0.592738 0.240192 0.183839 0.017592
C36   C     C_R   0.588443 0.172369 0.248818 -0.008835
C37   C     C_R   0.644207 0.315493 0.184177 -0.131643
C38   C     C_R   0.686805 0.324803 0.249768 -0.105460
C39   C     C_R   0.674243 0.258306 0.315053 -0.000041
C40   C     C_R   0.623170 0.182746 0.314947 -0.122775
C41   C     C_R   0.740059 0.399234 0.252590 0.523139
C42   C     C_R   0.782419 0.406671 0.317756 0.425650
C43   C     C_R   0.768421 0.341797 0.381119 -0.223419
C44   C     C_R   0.714018 0.268800 0.380137 -0.230509
H10   H     H_    0.479036 0.035023 0.174048 0.194001
H11   H     H_    0.471405 0.153086 0.065142 0.176443
H12   H     H_    0.548765 0.280802 0.067978 0.097588
H13   H     H_    0.704862 0.220663 0.431302 0.130050
O11   O     O_R   0.770540 0.084530 0.414050 -0.529916
O12   O     O_R   0.445710 0.065660 0.555720 -0.539487
O13   O     O_R   0.270420 0.915650 0.586190 -0.541105
C45   C     C_R   0.614534 0.079802 0.576293 0.687144
O14   O     O_R   0.441140 0.093540 0.412470 -0.531974
O15   O     O_R   0.265820 0.943740 0.441930 -0.513173
C46   C     C_R   0.610175 0.115628 0.384462 0.793334
O16   O     O_R   0.775150 0.056440 0.558310 -0.542429
O17   O     O_3   0.602370 0.950960 0.510050 -0.351909
V3    V     V_3+5 0.329450 0.009140 0.498150 1.523395
O18   O     O_R   0.935790 0.934280 0.444060 -0.517882
C47   C     C_R   0.103925 0.920259 0.423700 0.749119
O19   O     O_R   0.940370 0.906390 0.587310 -0.543263
C48   C     C_R   0.109169 0.883730 0.615062 0.667775
V4    V     V_3+5 0.828810 0.990710 0.501460 1.535192
O20   O     O_3   0.105780 0.049100 0.489960 -0.376393
C49   C     C_3   0.751797 0.311375 0.722634 0.337912
C50   C     C_3   0.570042 0.296785 0.684253 -0.136034
H14   H     H_    0.519441 0.334935 0.630255 0.209654
H15   H     H_    0.309626 0.299231 0.759400 0.251653
C51   C     C_1   0.622033 0.125530 0.621692 -0.152513
C52   C     C_1   0.641256 0.374725 0.878423 -0.071218
C53   C     C_3   0.807260 0.224153 0.744745 0.301537
C54   C     C_3   0.626158 0.209195 0.707404 -0.088494
C55   C     C_3   0.692531 0.204566 0.814310 0.594026
C56   C     C_3   0.637038 0.291511 0.792377 -0.145265
C57   C     C_3   0.510543 0.188315 0.777434 -0.184332
C58   C     C_3   0.454550 0.276573 0.754940 -0.121560
C59   C     C_1   0.623947 0.163389 0.660146 0.137038
C60   C     C_1   0.638958 0.337020 0.839852 0.178714
H16   H     H_    0.414082 0.136475 0.800937 0.219945
Cl1   Cl    Cl    0.411222 0.610473 0.313421 -0.493204
F1    F     F_    0.274296 0.650765 0.550450 -0.596739
Cl2   Cl    Cl    0.184054 0.503753 0.814139 -0.563214
Cl3   Cl    Cl    0.571504 0.004485 0.313942 -0.641104
F2    F     F_    0.751017 0.465683 0.193024 -0.666449
Cl4   Cl    Cl    0.854285 0.498131 0.320300 -0.491051
Cl5   Cl    Cl    0.912714 0.392751 0.686387 -0.437027
F3    F     F_    0.757127 0.157202 0.881380 -0.609727
Cl6   Cl    Cl    0.036669 0.185971 0.737369 -0.621839
Cl7   Cl    Cl    0.849953 0.890479 0.185749 -0.565383
F4    F     F_    0.273878 0.519580 0.671672 -0.548576
Cl8   Cl    Cl    0.001310 0.857418 0.961165 -0.576627

loop_
_geom_bond_atom_site_label_1
_geom_bond_atom_site_label_2
_ccdc_geom_bond_type
C50   H14   S    
C18   Cl8   S    
C25   C26   A    
C49   Cl5   S    
C10   C13   S    
O18   V4    S    
O12   V3    S    
C34   H12   S    
C41   F2    S    
C32   C33   A    
C28   C29   A    
C55   F3    S    
C5    C9    S    
O14   C46   A    
C6    C10   S    
C5    C12   S    
C4    C7    S    
C20   C21   A    
C21   C22   A    
C45   C51   S    
C22   C26   A    
O13   V3    S    
O5    C3    A    
C56   C60   S    
C53   Cl6   S    
V2    O10   S    
C57   H16   S    
C35   C36   A    
C18   C19   A    
C10   C15   S    
C3    C26   S    
O8    V2    S    
C24   C27   A    
C19   C20   A    
C25   C30   A    
O1    V2    S    
O11   V4    S    
O7    V1    S    
C1    O6    A    
C38   C39   A    
O9    C4    A    
C19   H6    S    
C5    C6    S    
C40   C46   S    
C13   H3    S    
C8    C47   S    
C6    C14   S    
V4    O20   S    
C49   C56   S    
C23   C24   A    
O12   C45   A    
C28   F1    S    
O17   V3    S    
O15   C47   A    
C33   H11   S    
H2    C14   S    
O16   V4    S    
C11   C12   S    
C29   C30   A    
C7    C15   T    
H15   C58   S    
C39   C40   A    
C6    Cl1   S    
O2    C1    A    
C27   C28   A    
C41   C42   A    
C9    C10   S    
C2    C52   S    
C57   C58   S    
C34   C35   A    
C53   C55   S    
C17   C18   A    
C42   Cl4   S    
C55   C57   S    
C32   H10   S    
O3    C4    A    
C11   Cl7   S    
C24   C25   A    
C39   C44   A    
C12   C16   S    
C54   C57   S    
O19   V4    S    
O14   V3    S    
O9    V2    S    
O11   C46   A    
C17   H5    S    
C11   C13   S    
O2    V1    S    
V3    O20   S    
C31   C32   A    
C49   C50   S    
O4    C2    A    
C33   C34   A    
C31   Cl3   S    
C38   C41   A    
C8    C16   T    
O1    C2    A    
H9    C43   S    
O18   C47   A    
O5    V1    S    
O8    C3    A    
C56   C58   S    
C27   H8    S    
C36   C40   A    
O6    V2    S    
C30   Cl2   S    
C12   C14   S    
C17   C22   A    
C9    H4    S    
C37   C38   A    
C23   C48   S    
O4    V1    S    
C21   C23   A    
O3    V1    S    
C49   C53   S    
C29   F4    S    
C43   C44   A    
C44   H13   S    
C50   C54   S    
C53   C54   S    
C5    H1    S    
C35   C37   A    
C9    C11   S    
O7    V2    S    
C55   C56   S    
O13   C48   A    
C31   C36   A    
C42   C43   A    
O17   V4    S    
O19   C48   A    
C1    C37   S    
C13   C14   S    
C45   O16   A    
V1    O10   S    
C52   C60   T    
O15   V3    S    
C54   C59   S    
C51   C59   T    
C20   H7    S    
C50   C58   S    
