data_str_m3_o40_o41_f0_fof.sym.141
_audit_creation_date              2012-12-10T16:37:50-0500
_audit_creation_method            fapswitch 2.2
_symmetry_space_group_name_H-M    P1
_symmetry_Int_Tables_number       1
_space_group_crystal_system       triclinic
_cell_length_a                    28.032798
_cell_length_b                    18.488613
_cell_length_c                    16.916514
_cell_angle_alpha                 90.733508
_cell_angle_beta                  61.145509
_cell_angle_gamma                 89.972632
_cell_volume                      7678.25124442

loop_
_atom_site_label
_atom_site_type_symbol
_atom_type_description
_atom_site_fract_x
_atom_site_fract_y
_atom_site_fract_z
_atom_type_partial_charge
C1    C     C_R   0.711052 0.285462 0.667609 0.932677
C2    C     C_R   0.300768 0.736251 0.322268 0.871535
C3    C     C_R   0.297959 0.268022 0.323533 0.926087
C4    C     C_R   0.700803 0.733770 0.677515 0.918282
C5    C     C_R   0.213507 0.788995 0.663805 0.953178
C6    C     C_R   0.800953 0.236806 0.322586 0.894856
C7    C     C_R   0.797870 0.768185 0.323581 0.903341
C8    C     C_R   0.200828 0.233722 0.677530 0.892365
C9    C     C_R   0.906921 0.502136 0.478311 0.068322
C10   C     C_R   0.095877 0.498622 0.513789 0.073075
C11   C     C_R   0.425500 0.999030 0.414676 0.071826
C12   C     C_R   0.614788 0.999222 0.450751 0.068233
C13   C     C_R   0.072419 0.379484 0.580787 -0.244625
C14   C     C_R   0.929486 0.621857 0.413121 -0.242674
C15   C     C_R   0.882442 0.385743 0.551063 -0.242024
C16   C     C_R   0.121370 0.614867 0.439733 -0.241336
C17   C     C_R   0.620603 0.868731 0.432696 -0.246670
C18   C     C_R   0.430301 0.129842 0.401503 -0.250166
C19   C     C_R   0.430317 0.867904 0.401233 -0.263595
C20   C     C_R   0.620584 0.129286 0.432801 -0.245396
C21   C     C_R   0.742572 0.310198 0.936337 -0.028410
C22   C     C_R   0.301315 0.769357 0.026715 -0.024527
C23   C     C_R   0.286932 0.251798 0.038805 -0.024475
C24   C     C_R   0.720692 0.731683 0.955486 -0.022031
C25   C     C_R   0.245612 0.813833 0.931253 -0.028181
C26   C     C_R   0.798956 0.267092 0.030912 -0.024212
C27   C     C_R   0.786273 0.752854 0.039328 -0.023688
C28   C     C_R   0.221270 0.230671 0.955059 -0.021652
C29   C     C_R   0.790507 0.267050 0.892734 0.095463
C30   C     C_R   0.255715 0.816873 0.068600 0.087983
C31   C     C_R   0.237679 0.212822 0.083287 0.092600
C32   C     C_R   0.771521 0.767618 0.909483 0.091584
C33   C     C_R   0.295304 0.774284 0.885632 0.088193
C34   C     C_R   0.754420 0.316538 0.071864 0.089130
C35   C     C_R   0.736827 0.714292 0.083990 0.096367
C36   C     C_R   0.272037 0.266768 0.909105 0.091723
C37   C     C_R   0.817587 0.242281 0.940855 0.012074
C38   C     C_R   0.225779 0.836153 0.022674 -0.001537
C39   C     C_R   0.202300 0.207338 0.044645 0.011768
C40   C     C_R   0.806274 0.774019 0.949194 -0.006199
C41   C     C_R   0.322040 0.748360 0.934482 0.012677
C42   C     C_R   0.724270 0.335777 0.026112 -0.001893
C43   C     C_R   0.701532 0.708792 0.045245 0.012015
C44   C     C_R   0.306821 0.273184 0.948773 -0.005721
C45   C     C_R   0.669570 0.378679 0.926508 -0.015776
C46   C     C_R   0.374463 0.700809 0.035523 -0.003520
C47   C     C_R   0.365474 0.308229 0.042408 -0.021747
C48   C     C_R   0.637341 0.686277 0.957755 -0.012011
C49   C     C_R   0.170362 0.879236 0.924589 -0.017804
C50   C     C_R   0.872897 0.199356 0.037964 -0.005077
C51   C     C_R   0.865075 0.808685 0.042694 -0.022433
C52   C     C_R   0.137755 0.185646 0.957527 -0.012768
C53   C     C_R   0.639491 0.393792 0.879119 -0.179650
C54   C     C_R   0.396497 0.671119 0.089248 -0.122374
C55   C     C_R   0.384121 0.344516 0.098381 -0.183720
C56   C     C_R   0.610230 0.664180 0.907987 -0.095741
C57   C     C_R   0.139795 0.894091 0.877977 -0.181037
C58   C     C_R   0.895861 0.170537 0.090478 -0.122341
C59   C     C_R   0.883894 0.844779 0.098556 -0.183715
C60   C     C_R   0.110410 0.163993 0.907946 -0.097459
C61   C     C_R   0.660000 0.372277 0.789560 0.001855
C62   C     C_R   0.378703 0.696138 0.176937 0.000322
C63   C     C_R   0.355346 0.337035 0.191670 -0.000471
C64   C     C_R   0.626421 0.691311 0.822635 -0.007093
C65   C     C_R   0.160700 0.874056 0.787626 0.004391
C66   C     C_R   0.878690 0.196106 0.177742 -0.003201
C67   C     C_R   0.855138 0.837339 0.191845 -0.002089
C68   C     C_R   0.126453 0.191419 0.822780 -0.004894
C69   C     C_R   0.700661 0.320158 0.753664 -0.141331
C70   C     C_R   0.329568 0.734287 0.221650 -0.174304
C71   C     C_R   0.319201 0.280545 0.227381 -0.130313
C72   C     C_R   0.676471 0.726440 0.776537 -0.184427
C73   C     C_R   0.203209 0.824597 0.749497 -0.140749
C74   C     C_R   0.829851 0.234968 0.222477 -0.176878
C75   C     C_R   0.818898 0.780963 0.227580 -0.123863
C76   C     C_R   0.176591 0.226314 0.776549 -0.179349
C77   C     C_R   0.731727 0.304255 0.798906 0.060747
C78   C     C_R   0.306761 0.764872 0.169209 0.070858
C79   C     C_R   0.297845 0.246513 0.174314 0.049434
C80   C     C_R   0.705805 0.746136 0.823988 0.069307
C81   C     C_R   0.235236 0.810558 0.793361 0.052989
C82   C     C_R   0.806746 0.265499 0.170775 0.071220
C83   C     C_R   0.797263 0.747287 0.174717 0.051420
C84   C     C_R   0.206106 0.245671 0.823844 0.070698
C85   C     C_R   0.697438 0.128289 0.513496 0.941062
C86   C     C_R   0.308999 0.870258 0.463717 0.863071
C87   C     C_R   0.308995 0.129321 0.463730 0.899096
C88   C     C_R   0.697408 0.871570 0.513589 0.918809
C89   C     C_R   0.197124 0.627824 0.516279 0.940930
C90   C     C_R   0.803808 0.372343 0.481077 0.874409
C91   C     C_R   0.809145 0.629630 0.463006 0.901017
C92   C     C_R   0.191181 0.370707 0.535733 0.898009
C93   C     C_R   0.713849 0.329852 0.888110 0.050225
C94   C     C_R   0.327134 0.744208 0.077340 0.031469
C95   C     C_R   0.316464 0.269446 0.085278 0.052112
C96   C     C_R   0.688214 0.720547 0.912042 0.023943
C97   C     C_R   0.216349 0.833217 0.883845 0.051166
C98   C     C_R   0.825804 0.243225 0.080167 0.032283
C99   C     C_R   0.815903 0.770244 0.085696 0.051733
C100  C     C_R   0.188655 0.219823 0.911762 0.022777
C101  C     C_R   0.659148 0.413260 0.008794 0.080755
C102  C     C_R   0.399477 0.691499 0.940744 0.075531
C103  C     C_R   0.392658 0.307468 0.946249 0.083776
C104  C     C_R   0.613189 0.682407 0.053061 0.085506
C105  C     C_R   0.158886 0.911814 0.008375 0.081769
C106  C     C_R   0.896298 0.187898 0.943971 0.079734
C107  C     C_R   0.892239 0.807786 0.946540 0.083976
C108  C     C_R   0.113808 0.181379 0.052768 0.084313
C109  C     C_R   0.677905 0.382367 0.064069 0.095750
C110  C     C_R   0.369758 0.703940 0.894697 0.044903
C111  C     C_R   0.362741 0.292822 0.900063 0.074654
C112  C     C_R   0.645425 0.691045 0.096297 0.045752
C113  C     C_R   0.177858 0.879800 0.062589 0.093314
C114  C     C_R   0.864301 0.195982 0.901593 0.042281
C115  C     C_R   0.862263 0.793312 0.900416 0.074259
C116  C     C_R   0.146239 0.189303 0.095742 0.043608
C117  C     C_R   0.783541 0.271463 0.754804 -0.205264
C118  C     C_R   0.268623 0.821748 0.202015 -0.196172
C119  C     C_R   0.258450 0.191172 0.205336 -0.190245
C120  C     C_R   0.749759 0.795141 0.790166 -0.173068
C121  C     C_R   0.288686 0.783185 0.746594 -0.189679
C122  C     C_R   0.769351 0.323263 0.203164 -0.193406
C123  C     C_R   0.757573 0.692290 0.205921 -0.201117
C124  C     C_R   0.250092 0.294620 0.790039 -0.174010
C125  C     C_R   0.812389 0.255776 0.799502 -0.181761
C126  C     C_R   0.244889 0.848019 0.152375 -0.188604
C127  C     C_R   0.228234 0.175821 0.161634 -0.174463
C128  C     C_R   0.782439 0.804124 0.830442 -0.185689
C129  C     C_R   0.318259 0.767597 0.790887 -0.179499
C130  C     C_R   0.745091 0.349213 0.154139 -0.188684
C131  C     C_R   0.727155 0.677418 0.162493 -0.181451
C132  C     C_R   0.282843 0.303455 0.830219 -0.186282
C133  C     C_R   0.070851 0.104268 0.937966 0.917814
C134  C     C_R   0.926516 0.899084 0.064671 0.946583
C135  C     C_R   0.931630 0.106209 0.060814 0.977640
C136  C     C_R   0.084888 0.926380 0.923715 0.941560
C137  C     C_R   0.570771 0.604338 0.938025 0.915814
C138  C     C_R   0.426588 0.399018 0.064608 0.947271
C139  C     C_R   0.432139 0.606602 0.060205 0.978457
C140  C     C_R   0.584919 0.426790 0.923818 0.941390
C141  C     C_R   0.575700 0.129659 0.417684 0.102751
C142  C     C_R   0.480299 0.867642 0.401222 0.118237
C143  C     C_R   0.480285 0.129962 0.401450 0.113331
C144  C     C_R   0.575712 0.868094 0.417552 0.107177
C145  C     C_R   0.074715 0.616092 0.429987 0.109744
C146  C     C_R   0.929407 0.384022 0.559136 0.115459
C147  C     C_R   0.978300 0.619918 0.417197 0.114283
C148  C     C_R   0.024642 0.380806 0.574162 0.118758
C149  C     C_R   0.555664 0.194543 0.402030 -0.200077
C150  C     C_R   0.508135 0.802652 0.394119 -0.233415
C151  C     C_R   0.508127 0.194734 0.394382 -0.203185
C152  C     C_R   0.555657 0.802906 0.401848 -0.206485
C153  C     C_R   0.063910 0.674407 0.388424 -0.202368
C154  C     C_R   0.940917 0.324590 0.597960 -0.208148
C155  C     C_R   0.015782 0.676607 0.382795 -0.207449
C156  C     C_R   0.988129 0.323057 0.605876 -0.210401
C157  C     C_R   0.502278 0.064451 0.410843 0.031034
C158  C     C_R   0.549781 0.933433 0.419648 0.032093
C159  C     C_R   0.549772 0.064417 0.419731 0.033216
C160  C     C_R   0.502285 0.933306 0.410737 0.032690
C161  C     C_R   0.989939 0.560236 0.456429 0.029093
C162  C     C_R   0.013311 0.440500 0.534474 0.027408
C163  C     C_R   0.037749 0.558699 0.463848 0.031054
C164  C     C_R   0.965802 0.441894 0.526498 0.028902
C165  C     C_R   0.954130 0.501633 0.487422 -0.051850
C166  C     C_R   0.049063 0.499152 0.503732 -0.052069
C167  C     C_R   0.476835 0.998918 0.411347 -0.054561
C168  C     C_R   0.571646 0.999016 0.429697 -0.051374
C169  C     C_R   0.873041 0.441371 0.503801 0.045734
C170  C     C_R   0.129896 0.559216 0.488467 0.043974
C171  C     C_R   0.109260 0.437337 0.548383 0.064136
C172  C     C_R   0.892688 0.563703 0.445596 0.062822
C173  C     C_R   0.399554 0.932700 0.417826 0.054618
C174  C     C_R   0.636681 0.065441 0.460408 0.054067
C175  C     C_R   0.636695 0.933200 0.460361 0.052712
C176  C     C_R   0.399542 0.065514 0.417954 0.054343
C177  C     C_R   0.831081 0.438515 0.480126 -0.094763
C178  C     C_R   0.170865 0.561837 0.514465 -0.117632
C179  C     C_R   0.159727 0.436480 0.548592 -0.122898
C180  C     C_R   0.841520 0.564251 0.447318 -0.125738
C181  C     C_R   0.343942 0.934158 0.437864 -0.100781
C182  C     C_R   0.674163 0.064159 0.495736 -0.112361
C183  C     C_R   0.674167 0.935284 0.495731 -0.099921
C184  C     C_R   0.343934 0.064694 0.437924 -0.119299
C185  C     C_R   0.815244 0.500065 0.453591 -0.298375
C186  C     C_R   0.186221 0.500347 0.541917 -0.290011
C187  C     C_R   0.318163 0.999532 0.444551 -0.302019
C188  C     C_R   0.690495 0.999935 0.514872 -0.319356
H1    H     H_    0.805830 0.261958 0.683390 0.164463
H2    H     H_    0.259530 0.851050 0.263353 0.170545
H3    H     H_    0.250283 0.158186 0.262512 0.170647
H4    H     H_    0.758037 0.831520 0.735879 0.174263
H5    H     H_    0.310471 0.778955 0.673831 0.175740
H6    H     H_    0.761302 0.353223 0.263642 0.169142
H7    H     H_    0.749322 0.659110 0.262966 0.172531
H8    H     H_    0.258313 0.331130 0.735896 0.172281
O1    O     O_R   0.746490 0.236330 0.638080 -0.648799
O2    O     O_R   0.253510 0.763670 0.361920 -0.645065
O3    O     O_R   0.253510 0.236330 0.361920 -0.644119
O4    O     O_R   0.746490 0.763670 0.638080 -0.630030
O5    O     O_R   0.246490 0.736330 0.638080 -0.638057
O6    O     O_R   0.753510 0.263670 0.361920 -0.645218
O7    O     O_R   0.753510 0.736330 0.361920 -0.665203
O8    O     O_R   0.246490 0.263670 0.638080 -0.633992
O9    O     O_R   0.674170 0.186160 0.516270 -0.639795
O10   O     O_R   0.325830 0.813840 0.483730 -0.663057
O11   O     O_R   0.325830 0.186160 0.483730 -0.631219
O12   O     O_R   0.674170 0.813840 0.516270 -0.652446
O13   O     O_R   0.174170 0.686160 0.516270 -0.628407
O14   O     O_R   0.825830 0.313840 0.483730 -0.656582
O15   O     O_R   0.825830 0.686160 0.483730 -0.624657
O16   O     O_R   0.174170 0.313840 0.516270 -0.627284
O17   O     O_R   0.739960 0.127620 0.525000 -0.618655
O18   O     O_R   0.260040 0.872380 0.475000 -0.642883
O19   O     O_R   0.260040 0.127620 0.475000 -0.633338
O20   O     O_R   0.739960 0.872380 0.525000 -0.629866
O21   O     O_R   0.239960 0.627620 0.525000 -0.623334
O22   O     O_R   0.760040 0.372380 0.475000 -0.642708
O23   O     O_R   0.760040 0.627620 0.475000 -0.630442
O24   O     O_R   0.239960 0.372380 0.525000 -0.626810
O25   O     O_R   0.680700 0.294870 0.629350 -0.596079
O26   O     O_R   0.319300 0.705130 0.370650 -0.645033
O27   O     O_R   0.319300 0.294870 0.370650 -0.610448
O28   O     O_R   0.680700 0.705130 0.629350 -0.629609
O29   O     O_R   0.180700 0.794870 0.629350 -0.594534
O30   O     O_R   0.819300 0.205130 0.370650 -0.637142
O31   O     O_R   0.819300 0.794870 0.370650 -0.613348
O32   O     O_R   0.180700 0.205130 0.629350 -0.638990
O33   O     O_R   0.062020 0.072840 0.007170 -0.657695
O34   O     O_R   0.937980 0.927160 0.992830 -0.621148
O35   O     O_R   0.937980 0.072840 0.992830 -0.617256
O36   O     O_R   0.062020 0.927160 0.007170 -0.626103
O37   O     O_R   0.562020 0.572840 0.007170 -0.658970
O38   O     O_R   0.437980 0.427160 0.992830 -0.620541
O39   O     O_R   0.437980 0.572840 0.992830 -0.616198
O40   O     O_R   0.562020 0.427160 0.007170 -0.625313
O41   O     O_R   0.947860 0.073950 0.109290 -0.610875
O42   O     O_R   0.052140 0.926050 0.890710 -0.639092
O43   O     O_R   0.052140 0.073950 0.890710 -0.630748
O44   O     O_R   0.947860 0.926050 0.109290 -0.624246
O45   O     O_R   0.447860 0.573950 0.109290 -0.611237
O46   O     O_R   0.552140 0.426050 0.890710 -0.638545
O47   O     O_R   0.552140 0.573950 0.890710 -0.631206
O48   O     O_R   0.447860 0.426050 0.109290 -0.624290
Zn1   Zn    Zn3+2 0.792340 0.208750 0.507670 0.918511
Zn2   Zn    Zn3+2 0.207660 0.791250 0.492330 0.932934
Zn3   Zn    Zn3+2 0.207660 0.208750 0.492330 0.926143
Zn4   Zn    Zn3+2 0.792340 0.791250 0.507670 0.942172
Zn5   Zn    Zn3+2 0.292340 0.708750 0.507670 0.913949
Zn6   Zn    Zn3+2 0.707660 0.291250 0.492330 0.925506
Zn7   Zn    Zn3+2 0.707660 0.708750 0.492330 0.906361
Zn8   Zn    Zn3+2 0.292340 0.291250 0.507670 0.936325
Zn9   Zn    Zn3+2 0.505960 0.500000 0.080520 0.881429
Zn10  Zn    Zn3+2 0.494040 0.500000 0.919480 0.885438
Zn11  Zn    Zn3+2 0.005960 0.000000 0.080520 0.882793
Zn12  Zn    Zn3+2 0.994040 0.000000 0.919480 0.884344
H9    H     H_    0.996335 0.276485 0.635840 0.130295
H10   H     H_    0.007832 0.722665 0.351784 0.139757
H11   H     H_    0.914161 0.278500 0.619776 0.125378
H12   H     H_    0.092175 0.718950 0.361833 0.147178
H13   H     H_    0.575680 0.751913 0.398458 0.141514
H14   H     H_    0.492348 0.245723 0.385523 0.135484
H15   H     H_    0.492408 0.751505 0.385037 0.131388
H16   H     H_    0.575665 0.245420 0.398766 0.138908
H17   H     H_    0.779698 0.499194 0.443948 0.193063
H18   H     H_    0.221220 0.501124 0.553055 0.194998
H19   H     H_    0.275640 0.999778 0.461337 0.197902
H20   H     H_    0.717531 0.000256 0.544041 0.192311
H21   H     H_    0.079596 0.334424 0.614080 0.154362
H22   H     H_    0.921476 0.667434 0.381550 0.159375
H23   H     H_    0.853109 0.344100 0.584025 0.159884
H24   H     H_    0.150903 0.657156 0.407789 0.174942
H25   H     H_    0.642002 0.818079 0.421124 0.190990
H26   H     H_    0.416423 0.180434 0.388396 0.172863
H27   H     H_    0.416425 0.817061 0.388044 0.171070
H28   H     H_    0.641983 0.179629 0.421222 0.188154
N1    N     N_3   0.642929 0.407380 0.731616 -0.435264
H29   H     H_    0.606033 0.385928 0.741406 0.225632
H30   H     H_    0.639549 0.463262 0.743816 0.182762
N2    N     N_3   0.412528 0.684135 0.218101 -0.439853
H31   H     H_    0.396694 0.642440 0.264722 0.222872
H32   H     H_    0.415883 0.731986 0.248661 0.184675
N3    N     N_3   0.357614 0.391026 0.252220 -0.421329
H33   H     H_    0.393709 0.385905 0.255615 0.218673
H34   H     H_    0.352398 0.442953 0.233600 0.197589
N4    N     N_3   0.589979 0.684770 0.785450 -0.438856
H35   H     H_    0.586568 0.734360 0.759466 0.192966
H36   H     H_    0.603642 0.643992 0.735900 0.220458
N5    N     N_3   0.142031 0.907945 0.731110 -0.435274
H37   H     H_    0.105355 0.885039 0.741869 0.226306
H38   H     H_    0.137730 0.963773 0.743634 0.183831
N6    N     N_3   0.912683 0.183825 0.218524 -0.437299
H39   H     H_    0.896801 0.142169 0.265198 0.223232
H40   H     H_    0.916218 0.231593 0.249030 0.196398
N7    N     N_3   0.857525 0.891251 0.252368 -0.425371
H41   H     H_    0.893640 0.886013 0.255669 0.220239
H42   H     H_    0.852376 0.943211 0.233750 0.196988
N8    N     N_3   0.089770 0.185472 0.785984 -0.438194
H43   H     H_    0.086503 0.235224 0.760172 0.182395
H44   H     H_    0.103186 0.144832 0.736284 0.220215
N9    N     N_3   0.643035 0.487961 0.026891 -0.459101
H45   H     H_    0.647923 0.513412 0.968753 0.195915
H46   H     H_    0.603295 0.492583 0.080243 0.218783
N10   N     N_3   0.457293 0.679540 0.889027 -0.427282
H47   H     H_    0.474526 0.724264 0.847820 0.176106
H48   H     H_    0.465200 0.633990 0.847167 0.198062
N11   N     N_3   0.451201 0.306696 0.893952 -0.459197
H49   H     H_    0.464379 0.354822 0.858236 0.208521
H50   H     H_    0.469527 0.299363 0.934378 0.198978
N12   N     N_3   0.554795 0.681952 0.106515 -0.427129
H51   H     H_    0.541749 0.731287 0.141453 0.174398
H52   H     H_    0.543094 0.640332 0.153355 0.189079
N13   N     N_3   0.142577 0.986362 0.028437 -0.458811
H53   H     H_    0.147392 0.012911 0.970987 0.197290
H54   H     H_    0.102820 0.990501 0.081841 0.217681
N14   N     N_3   0.954225 0.178523 0.889190 -0.426802
H55   H     H_    0.969306 0.222867 0.846486 0.170966
H56   H     H_    0.962456 0.132143 0.848552 0.196966
N15   N     N_3   0.950780 0.806674 0.894213 -0.458800
H57   H     H_    0.964112 0.854733 0.858392 0.208491
H58   H     H_    0.969096 0.799209 0.934633 0.198678
N16   N     N_3   0.055433 0.181342 0.106533 -0.426131
H59   H     H_    0.042700 0.230617 0.141653 0.174422
H60   H     H_    0.043624 0.139591 0.153201 0.191057
N17   N     N_3   0.647486 0.397127 0.159234 -0.484188
H61   H     H_    0.647526 0.452845 0.170696 0.175726
H62   H     H_    0.607196 0.381178 0.182098 0.183528
N18   N     N_3   0.386631 0.666125 0.810699 -0.480464
H63   H     H_    0.425888 0.682465 0.764056 0.163630
H64   H     H_    0.387475 0.610643 0.821296 0.187909
N19   N     N_3   0.391269 0.288238 0.803249 -0.465399
H65   H     H_    0.410437 0.337651 0.778223 0.168714
H66   H     H_    0.421171 0.247854 0.783000 0.215637
N20   N     N_3   0.619453 0.691076 0.193129 -0.479820
H67   H     H_    0.590476 0.732675 0.218919 0.196540
H68   H     H_    0.600100 0.641501 0.216266 0.158309
N21   N     N_3   0.146158 0.890220 0.158454 -0.483438
H69   H     H_    0.143857 0.945521 0.173778 0.175213
H70   H     H_    0.106667 0.871865 0.178969 0.183469
N22   N     N_3   0.877100 0.151088 0.823953 -0.477997
H71   H     H_    0.916011 0.163864 0.772389 0.155507
H72   H     H_    0.877287 0.097031 0.841289 0.191762
N23   N     N_3   0.890772 0.788547 0.803613 -0.464899
H73   H     H_    0.910115 0.837836 0.778440 0.169238
H74   H     H_    0.920527 0.747972 0.783468 0.216125
N24   N     N_3   0.120490 0.188024 0.192529 -0.472705
H75   H     H_    0.091279 0.229310 0.219600 0.190743
H76   H     H_    0.101469 0.138106 0.214634 0.162730
H77   H     H_    0.853618 0.238827 0.757019 0.160848
H78   H     H_    0.220733 0.896259 0.179483 0.165495
H79   H     H_    0.198758 0.132867 0.188413 0.159152
H80   H     H_    0.814126 0.844185 0.801922 0.159962
H81   H     H_    0.360496 0.754944 0.747326 0.168858
H82   H     H_    0.721735 0.398080 0.180632 0.165649
H83   H     H_    0.697388 0.634813 0.189507 0.158208
H84   H     H_    0.314491 0.343570 0.801762 0.159633

loop_
_geom_bond_atom_site_label_1
_geom_bond_atom_site_label_2
_ccdc_geom_bond_type
C152  H13   S    
N16   H60   S    
O19   Zn3   S    
C85   C182  S    
C136  O42   A    
C9    C169  A    
C34   C42   A    
C127  H79   S    
C107  N15   S    
O4    Zn4   S    
N21   H69   S    
C181  C187  A    
O32   Zn3   S    
N9    H45   S    
C27   C99   A    
C188  H20   S    
C12   C174  A    
C42   C109  A    
C125  H77   S    
C24   C96   A    
C33   C129  A    
C62   C70   A    
C1    O25   A    
C7    O7    A    
O28   Zn7   S    
O31   Zn4   S    
O40   Zn9   S    
C147  C155  A    
O11   Zn8   S    
C150  H15   S    
C143  C151  A    
C90   C177  S    
C11   C167  A    
C82   C98   A    
C76   C84   A    
C122  H6    S    
C137  O37   A    
C73   C81   A    
C161  C163  A    
C162  C164  A    
N12   H52   S    
C158  C168  A    
C84   C100  A    
C8    O8    A    
N22   H71   S    
C57   C65   A    
C155  H10   S    
C37   C114  A    
C27   C35   A    
C10   C171  A    
C21   C29   A    
C135  O41   A    
C81   C121  A    
N14   H55   S    
C23   C31   A    
C24   C32   A    
C146  C154  A    
C14   H22   S    
O35   Zn12  S    
C14   C172  A    
C63   C71   A    
O24   Zn8   S    
C139  O39   A    
C36   C44   A    
N8    H43   S    
O30   Zn1   S    
C175  C183  A    
C176  C184  A    
C48   C96   A    
C113  N21   S    
O39   Zn10  S    
C17   H25   S    
O20   Zn4   S    
C61   C69   A    
C128  H80   S    
N6    H40   S    
C148  C162  A    
C183  C188  A    
N4    H36   S    
C108  C116  A    
C21   C93   A    
C78   C94   A    
O1    Zn1   S    
C23   C95   A    
C49   C97   A    
C21   C42   A    
C22   C41   A    
O25   Zn6   S    
C51   C107  A    
C24   C43   A    
O13   Zn2   S    
C82   C122  A    
C161  C165  A    
C17   C175  A    
C18   C176  A    
O27   Zn8   S    
N15   H58   S    
C29   C125  A    
C69   C77   A    
C31   C127  A    
C45   C93   A    
C174  C182  A    
C71   C79   A    
C8    O32   A    
C185  H17   S    
N7    H42   S    
C179  C186  A    
C30   C38   A    
C11   C176  A    
C7    O31   A    
C17   C144  A    
C103  C111  A    
C18   C143  A    
C78   C118  A    
C149  C151  A    
C5    O5    A    
N13   H54   S    
C66   C74   A    
C131  H83   S    
C8    C76   S    
C49   C57   A    
C124  C132  A    
C111  N19   S    
N17   H62   S    
O9    Zn6   S    
C52   C60   A    
C151  H14   S    
C59   C67   A    
C53   C61   A    
C141  C159  A    
C20   C174  A    
C5    O29   A    
C55   C63   A    
C86   C181  S    
C104  N12   S    
C56   C64   A    
C187  H19   S    
C35   C43   A    
O38   Zn10  S    
C10   C166  A    
N10   H48   S    
C45   C53   A    
N1    H29   S    
C22   C94   A    
C171  C179  A    
O36   Zn11  S    
O21   Zn5   S    
C169  C177  A    
C50   C98   A    
N2    H31   S    
C91   O15   A    
C104  C112  A    
N20   H67   S    
C89   O13   A    
C145  C163  A    
C146  C164  A    
C14   C147  A    
C52   C100  A    
C16   C145  A    
C137  O47   A    
C86   O18   A    
C178  C186  A    
C13   H21   S    
C25   C38   A    
N24   H76   S    
C54   C139  S    
C46   C94   A    
C27   C40   A    
N2    H32   S    
C107  C115  A    
C91   C180  S    
C124  H8    S    
N5    H37   S    
C182  C188  A    
C89   C178  S    
O17   Zn1   S    
C60   C68   A    
C117  H1    S    
O7    Zn7   S    
C25   C97   A    
O5    Zn5   S    
N23   H74   S    
C92   O16   A    
C67   C75   A    
N21   H70   S    
C67   N7    S    
C140  O40   A    
C156  H9    S    
O29   Zn2   S    
C3    O27   A    
C22   C30   A    
C154  C156  A    
C20   C141  A    
C1    O1    A    
N18   H63   S    
C15   C146  A    
C58   C135  S    
C68   C76   A    
C141  C149  A    
C59   C134  S    
C184  C187  A    
C32   C128  A    
C72   C80   A    
C56   C137  S    
C186  H18   S    
C134  O34   A    
C5    C73   S    
C139  O45   A    
C90   O22   A    
C115  N23   S    
C13   C171  A    
O45   Zn9   S    
C61   N1    S    
N3    H33   S    
C83   C99   A    
C133  O43   A    
C144  C158  A    
C25   C33   A    
C18   H26   S    
C119  C127  A    
C126  H78   S    
O22   Zn6   S    
C157  C167  A    
C30   C126  A    
C112  N20   S    
C164  C165  A    
N22   H72   S    
O34   Zn12  S    
C40   C115  A    
N3    H34   S    
C101  C109  A    
C2    O26   A    
C177  C185  A    
N14   H56   S    
O33   Zn11  S    
C162  C166  A    
C79   C119  A    
C153  C155  A    
C109  N17   S    
C172  C180  A    
N16   H59   S    
C173  C181  A    
C157  C159  A    
O23   Zn7   S    
C158  C160  A    
C123  H7    S    
N8    H44   S    
C74   C82   A    
C121  H5    S    
C16   H24   S    
C6    C74   S    
N9    H46   S    
C47   C103  A    
C85   O9    A    
N11   H49   S    
C50   C58   A    
C163  C166  A    
C147  C161  A    
C114  N22   S    
N7    H41   S    
C38   C113  A    
C49   C105  A    
C54   C62   A    
C28   C39   A    
C116  N24   S    
C1    C69   S    
C23   C44   A    
C3    C71   S    
N19   H65   S    
C19   C173  A    
C79   C95   A    
C92   C179  S    
C136  O36   A    
C46   C54   A    
C55   C138  S    
C45   C101  A    
C19   C142  A    
O48   Zn9   S    
C138  O38   A    
C105  N13   S    
C35   C131  A    
C4    C72   S    
C138  O48   A    
C65   N5    S    
N12   H51   S    
C36   C132  A    
C123  C131  A    
O41   Zn11  S    
C121  C129  A    
C120  C128  A    
C26   C37   A    
C10   C170  A    
C106  N14   S    
C33   C41   A    
C142  C150  A    
C9    C165  A    
C118  H2    S    
C75   C83   A    
N13   H53   S    
C68   N8    S    
O2    Zn2   S    
C6    O30   A    
C77   C93   A    
C132  H84   S    
N17   H61   S    
C133  O33   A    
N15   H57   S    
C44   C111  A    
C16   C170  A    
C28   C36   A    
C144  C152  A    
C39   C116  A    
C29   C37   A    
O43   Zn12  S    
C50   C106  A    
C87   O19   A    
C9    C172  A    
C148  C156  A    
C83   C123  A    
C2    C70   S    
C153  H12   S    
C60   C133  S    
C154  H11   S    
C170  C178  A    
N23   H73   S    
C80   C120  A    
C70   C78   A    
C53   C140  S    
C86   O10   A    
C20   H28   S    
C63   N3    S    
C46   C102  A    
C15   C169  A    
O47   Zn10  S    
C81   C97   A    
C106  C114  A    
N6    H39   S    
C119  H3    S    
C6    O6    A    
C77   C117  A    
C120  H4    S    
N4    H35   S    
N20   H68   S    
C48   C104  A    
C65   C73   A    
C159  C168  A    
C130  H82   S    
C160  C167  A    
C92   O24   A    
O10   Zn5   S    
C26   C34   A    
C19   H27   S    
C105  C113  A    
C3    O3    A    
C57   C136  S    
C80   C96   A    
C149  H16   S    
C101  N9    S    
O3    Zn3   S    
C145  C153  A    
C28   C100  A    
C32   C40   A    
C52   C108  A    
C66   N6    S    
C62   N2    S    
O16   Zn3   S    
C15   H23   S    
C58   C66   A    
C143  C157  A    
C51   C99   A    
C11   C173  A    
C108  N16   S    
C64   N4    S    
N18   H64   S    
C87   C184  S    
C90   O14   A    
C88   C183  S    
C7    C75   S    
C4    O28   A    
C102  N10   S    
O42   Zn12  S    
N11   H50   S    
O12   Zn7   S    
O15   Zn4   S    
C85   O17   A    
C4    O4    A    
O18   Zn2   S    
N19   H66   S    
C87   O11   A    
C26   C98   A    
C12   C175  A    
N10   H47   S    
O6    Zn6   S    
C103  N11   S    
C41   C110  A    
N1    H30   S    
O46   Zn10  S    
C150  C152  A    
C51   C59   A    
C43   C112  A    
C110  N18   S    
C47   C55   A    
C129  H81   S    
C48   C56   A    
O44   Zn11  S    
C88   O20   A    
C2    O2    A    
C134  O44   A    
C142  C160  A    
C12   C168  A    
O37   Zn9   S    
C84   C124  A    
C13   C148  A    
N24   H75   S    
C117  C125  A    
N5    H38   S    
C31   C39   A    
C88   O12   A    
C140  O46   A    
C64   C72   A    
C91   O23   A    
C102  C110  A    
C180  C185  A    
C89   O21   A    
O8    Zn8   S    
O26   Zn5   S    
C34   C130  A    
C47   C95   A    
C118  C126  A    
O14   Zn1   S    
C122  C130  A    
C135  O35   A    
