data_str_m2_o10_o28_f0_pcu.sym.228
_audit_creation_date              2012-12-10T16:50:15-0500
_audit_creation_method            fapswitch 2.2
_symmetry_space_group_name_H-M    P1
_symmetry_Int_Tables_number       1
_space_group_crystal_system       triclinic
_cell_length_a                    23.512633
_cell_length_b                    8.759675
_cell_length_c                    7.612106
_cell_angle_alpha                 103.575042
_cell_angle_beta                  96.675488
_cell_angle_gamma                 96.014947
_cell_volume                      1499.45105898

loop_
_atom_site_label
_atom_site_type_symbol
_atom_type_description
_atom_site_fract_x
_atom_site_fract_y
_atom_site_fract_z
_atom_type_partial_charge
C1    C     C_R   0.497676 0.200221 0.453446 0.955755
C2    C     C_R   0.502323 0.799779 0.546554 0.955753
C3    C     C_R   0.246536 0.632450 0.569176 -0.158630
C4    C     C_R   0.753463 0.367545 0.430827 -0.158632
C5    C     C_R   0.305992 0.636016 0.568276 -0.155027
C6    C     C_R   0.694007 0.363981 0.431724 -0.155027
C7    C     C_R   0.328511 0.494663 0.494003 -0.132805
C8    C     C_R   0.671489 0.505334 0.505998 -0.132807
C9    C     C_R   0.290395 0.349944 0.422692 -0.098274
C10   C     C_R   0.709605 0.650051 0.577316 -0.098271
C11   C     C_R   0.230932 0.351344 0.426951 -0.114327
C12   C     C_R   0.769069 0.648649 0.573061 -0.114327
C13   C     C_R   0.208970 0.491280 0.499034 0.324384
C14   C     C_R   0.791030 0.508714 0.500974 0.324384
C15   C     C_2   0.490633 0.031733 0.430025 0.082261
C16   C     C_2   0.509367 0.968267 0.569975 0.082260
C17   C     C_R   0.391309 0.498768 0.498115 0.887051
C18   C     C_R   0.608691 0.501232 0.501885 0.887051
C19   C     C_R   0.888845 0.554474 0.663090 0.541681
C20   C     C_R   0.111155 0.445516 0.336919 0.541682
C21   C     C_R   0.872690 0.461680 0.337574 0.553783
C22   C     C_R   0.127310 0.538313 0.662436 0.553784
C23   C     C_R   0.931919 0.455126 0.334291 -0.015891
C24   C     C_R   0.068081 0.544866 0.665718 -0.015891
C25   C     C_R   0.970086 0.502245 0.500053 -0.014169
C26   C     C_R   0.029914 0.497745 0.499957 -0.014169
C27   C     C_R   0.948583 0.553867 0.665911 -0.020726
C28   C     C_R   0.051417 0.446124 0.334099 -0.020725
C29   C     C_R   0.953760 0.402373 0.169756 -0.153510
C30   C     C_R   0.046240 0.597618 0.830253 -0.153509
C31   C     C_R   0.012873 0.397527 0.169756 -0.187848
C32   C     C_R   0.987127 0.602463 0.830253 -0.187848
Cu1   Cu    Cu3+1 0.506340 0.517380 0.684380 1.100007
Cu2   Cu    Cu3+1 0.493660 0.482620 0.315620 1.100010
H1    H     H_    0.925303 0.364696 0.040457 0.204488
H2    H     H_    0.074697 0.635295 0.959552 0.204488
H3    H     H_    0.028234 0.355751 0.040576 0.195582
H4    H     H_    0.971766 0.644239 0.959434 0.195582
H5    H     H_    0.228906 0.740893 0.621237 0.160173
H6    H     H_    0.771093 0.259102 0.378764 0.160172
H7    H     H_    0.200981 0.242818 0.375903 0.190607
H8    H     H_    0.799020 0.757174 0.624113 0.190603
N1    N     N_R   0.852203 0.509316 0.500474 -0.465427
N2    N     N_R   0.147797 0.490676 0.499536 -0.465427
N3    N     N_2   0.484110 0.456420 0.038520 -0.230186
N4    N     N_2   0.515890 0.543580 0.961480 -0.230185
O1    O     O_R   0.504120 0.286130 0.619770 -0.552457
O2    O     O_R   0.495880 0.713870 0.380230 -0.552456
O3    O     O_R   0.493410 0.256770 0.308360 -0.532501
O4    O     O_R   0.506590 0.743230 0.691640 -0.532503
O5    O     O_R   0.423230 0.514630 0.655730 -0.570361
O6    O     O_R   0.576770 0.485370 0.344270 -0.570359
O7    O     O_R   0.412530 0.485280 0.344320 -0.546404
O8    O     O_R   0.587470 0.514720 0.655680 -0.546410
O9    O     O_2   0.867465 0.597687 0.821783 -0.506675
O10   O     O_2   0.132535 0.402302 0.178227 -0.506677
O11   O     O_2   0.835879 0.421686 0.179139 -0.504492
O12   O     O_2   0.164121 0.578309 0.820870 -0.504492
C33   C     C_2   0.343041 0.791514 0.639375 0.878431
O13   O     O_2   0.377735 0.835023 0.548061 -0.575448
O14   O     O_R   0.337534 0.892576 0.806673 -0.686431
H9    H     H_    0.309388 0.843479 0.875682 0.319236
C34   C     C_2   0.656957 0.208485 0.360620 0.878435
O15   O     O_2   0.622263 0.164975 0.451932 -0.575444
O16   O     O_R   0.662465 0.107425 0.193321 -0.686429
H10   H     H_    0.690612 0.156523 0.124315 0.319233
C35   C     C_2   0.310269 0.194574 0.346424 0.904375
O17   O     O_2   0.361352 0.178531 0.368185 -0.553613
O18   O     O_R   0.269855 0.064145 0.250942 -0.744221
H11   H     H_    0.288326 0.964974 0.208201 0.361861
C36   C     C_2   0.689732 0.805420 0.653587 0.904380
O19   O     O_2   0.638650 0.821473 0.631797 -0.553624
O20   O     O_R   0.730145 0.935837 0.749106 -0.744212
H12   H     H_    0.711674 0.035010 0.791841 0.361858
Br1   Br    Br    0.445728 0.914951 0.197238 -0.343013
Br2   Br    Br    0.554273 0.085049 0.802762 -0.343014
C37   C     C_2   0.437091 0.332821 0.950146 1.105482
O21   O     O_2   0.410509 0.267278 0.046513 -0.520064
O22   O     O_R   0.419999 0.279874 0.763650 -0.734429
H13   H     H_    0.386438 0.190592 0.728549 0.351771
C38   C     C_2   0.562909 0.667179 0.049853 1.105481
O23   O     O_2   0.589490 0.732721 0.953486 -0.520071
O24   O     O_R   0.580001 0.720126 0.236349 -0.734423
H14   H     H_    0.613562 0.809408 0.271450 0.351777

loop_
_geom_bond_atom_site_label_1
_geom_bond_atom_site_label_2
_ccdc_geom_bond_type
C15   Br1   S    
C34   O16   S    
O20   H12   S    
C20   O10   S    
C17   O5    A    
C38   O23   D    
C18   O6    A    
C37   O21   D    
C23   C29   A    
C24   C26   A    
C15   C16   D    
C12   H8    S    
C2    O4    A    
C38   O24   S    
C21   N1    A    
C22   N2    A    
C4    H6    S    
C7    C17   S    
C1    C15   S    
C32   H4    S    
C19   C27   A    
C3    C13   A    
C10   C36   S    
C3    H5    S    
C33   O13   D    
Cu1   N4    S    
O14   H9    S    
C20   N2    A    
C19   N1    A    
C37   O22   S    
C33   O14   S    
C5    C33   S    
C35   O17   D    
C4    C6    A    
C36   O20   S    
C1    O1    A    
C6    C8    A    
C20   C28   A    
C2    O2    A    
C25   C26   A    
N3    N4    D    
C8    C18   S    
Cu1   O5    S    
O22   H13   S    
C35   O18   S    
C6    C34   S    
C9    C35   S    
C21   O11   S    
N4    C38   S    
O24   H14   S    
Cu1   Cu2   S    
Cu2   N3    S    
C9    C11   A    
C10   C12   A    
C12   C14   A    
C21   C23   A    
Cu1   O1    S    
C22   C24   A    
Cu2   O2    S    
C17   O7    A    
C2    C16   S    
C5    C7    A    
C19   O9    S    
Cu1   O8    S    
C7    C9    A    
Cu2   O3    S    
C27   C32   A    
C16   Br2   S    
Cu2   O6    S    
C28   C31   A    
C3    C5    A    
C22   O12   S    
C25   C27   A    
C29   H1    S    
C26   C28   A    
C30   H2    S    
Cu1   O4    S    
C36   O19   D    
C29   C31   A    
C30   C32   A    
C11   C13   A    
C11   H7    S    
C23   C25   A    
C4    C14   A    
O18   H11   S    
C24   C30   A    
C18   O8    A    
C34   O15   D    
C31   H3    S    
Cu2   O7    S    
C8    C10   A    
O16   H10   S    
N3    C37   S    
C1    O3    A    
C13   N2    S    
C14   N1    S    
