data_str_m9_o11_o16_f0_sra.sym.28
_audit_creation_date              2013-03-05T15:41:44-0500
_audit_creation_method            fapswitch 2.2
_symmetry_space_group_name_H-M    P1
_symmetry_Int_Tables_number       1
_space_group_crystal_system       triclinic
_cell_length_a                    6.945047
_cell_length_b                    13.638299
_cell_length_c                    20.47943
_cell_angle_alpha                 102.458865
_cell_angle_beta                  90.709591
_cell_angle_gamma                 89.571641
_cell_volume                      1893.93563806

loop_
_atom_site_label
_atom_site_type_symbol
_atom_site_description
_atom_site_fract_x
_atom_site_fract_y
_atom_site_fract_z
_atom_type_partial_charge
O1    O     O_R   0.506860 0.599390 0.449240 -0.574773
O2    O     O_R   0.180220 0.594600 0.586780 -0.528472
O3    O     O_R   0.004500 0.400610 0.550760 -0.527363
C1    C     C_R   0.348131 0.613561 0.614452 0.880603
O4    O     O_R   0.177490 0.611290 0.451970 -0.584642
O5    O     O_R   0.001750 0.417420 0.414990 -0.547896
C2    C     C_R   0.344357 0.635640 0.433531 0.807923
O6    O     O_R   0.509610 0.582580 0.585010 -0.548147
O7    O     O_3   0.337420 0.436370 0.488020 -0.249010
V1    V     V_3+5 0.064680 0.511800 0.502220 1.213891
O8    O     O_R   0.671710 0.405400 0.413220 -0.545625
C3    C     C_R   0.840613 0.381766 0.387324 0.866834
O9    O     O_R   0.674440 0.388710 0.548030 -0.565263
C4    C     C_R   0.844551 0.362744 0.565291 0.882205
V2    V     V_3+5 0.564010 0.488200 0.497780 1.205208
O10   O     O_3   0.841140 0.563630 0.511980 -0.279902
C5    C     C_R   0.937278 0.116183 0.613752 -0.070254
H1    H     H_    0.935760 0.167049 0.521667 0.098365
H2    H     H_    0.979340 0.992676 0.696708 0.075418
H3    H     H_    0.977700 0.040365 0.589239 0.067443
C6    C     C_R   0.858714 0.285813 0.605232 -0.084032
C7    C     C_R   0.808137 0.312086 0.927453 -0.095510
C8    C     C_R   0.783442 0.387166 0.891763 -0.055226
C9    C     C_R   0.801144 0.365584 0.822417 -0.063376
C10   C     C_R   0.845039 0.267122 0.786627 0.044793
C11   C     C_R   0.873980 0.190742 0.823813 0.012399
C12   C     C_R   0.862144 0.242054 0.715358 0.037225
C13   C     C_R   0.913233 0.142200 0.683356 0.066603
C14   C     C_R   0.941221 0.068999 0.720907 -0.099949
C15   C     C_R   0.920871 0.092531 0.789889 -0.096754
C16   C     C_R   0.831549 0.312536 0.674489 -0.086235
C17   C     C_R   0.912573 0.187873 0.575112 -0.098392
C18   C     C_R   0.853892 0.214165 0.894372 -0.087501
H4    H     H_    0.789279 0.389084 0.694776 0.107696
H5    H     H_    0.790988 0.330352 0.981257 0.052707
H6    H     H_    0.780358 0.427918 0.798515 0.100372
H7    H     H_    0.749080 0.462881 0.918059 0.075062
H8    H     H_    0.943735 0.032856 0.816516 0.074167
C19   C     C_2   0.002316 0.258105 0.294566 0.316955
C20   C     C_2   0.847195 0.315078 0.319648 -0.250499
H9    H     H_    0.721076 0.318188 0.288520 0.075277
C21   C     C_2   0.011972 0.202998 0.222877 -0.157078
C22   C     C_2   0.857965 0.177508 0.182336 -0.272803
H10   H     H_    0.152900 0.176662 0.204077 0.141844
H11   H     H_    0.713892 0.196800 0.200684 0.108373
C23   C     C_2   0.204098 0.777172 0.787411 -0.152729
C24   C     C_2   0.364853 0.812455 0.821059 -0.274684
H12   H     H_    0.065759 0.801896 0.809390 0.142698
H13   H     H_    0.504408 0.784602 0.801949 0.119070
C25   C     C_2   0.203572 0.697358 0.724537 0.340580
C26   C     C_2   0.354710 0.682590 0.681380 -0.262657
H14   H     H_    0.484364 0.726915 0.693159 0.084794
C27   C     C_R   0.265523 0.877820 0.381465 -0.070760
H15   H     H_    0.285250 0.830423 0.474017 0.060516
H16   H     H_    0.181882 0.994791 0.297217 0.118460
H17   H     H_    0.221196 0.953095 0.405829 0.097067
C28   C     C_R   0.344255 0.708168 0.390316 -0.061520
C29   C     C_R   0.479441 0.696303 0.074339 -0.083869
C30   C     C_R   0.562731 0.637068 0.114267 -0.061089
C31   C     C_R   0.533687 0.660379 0.182848 -0.092083
C32   C     C_R   0.402770 0.736668 0.212002 0.046640
C33   C     C_R   0.339133 0.805143 0.172702 0.012197
C34   C     C_R   0.351362 0.753521 0.280829 0.034508
C35   C     C_R   0.285485 0.851149 0.312096 0.049809
C36   C     C_R   0.237610 0.921291 0.273765 -0.085891
C37   C     C_R   0.255176 0.896890 0.204687 -0.103950
C38   C     C_R   0.356673 0.677421 0.319474 0.007380
C39   C     C_R   0.301683 0.807925 0.420276 -0.121484
C40   C     C_R   0.376641 0.783540 0.103220 -0.097318
H18   H     H_    0.512985 0.680184 0.021517 0.064288
H19   H     H_    0.615617 0.618362 0.212875 0.063374
H20   H     H_    0.656731 0.575330 0.092350 0.067776
H21   H     H_    0.210280 0.952595 0.177144 0.089761
O11   O     O_R   0.203230 0.917310 0.915020 -0.561186
O12   O     O_R   0.535500 0.888690 0.048040 -0.562444
O13   O     O_R   0.711080 0.082610 0.085000 -0.556942
C41   C     C_R   0.369167 0.861989 0.064569 0.819241
O14   O     O_R   0.532630 0.905370 0.913230 -0.561675
O15   O     O_R   0.708190 0.099410 0.949230 -0.560741
C42   C     C_R   0.364587 0.883766 0.886629 0.858864
O16   O     O_R   0.206120 0.900510 0.050790 -0.566034
O17   O     O_3   0.375360 0.063570 0.011990 -0.275706
V3    V     V_3+5 0.648170 0.988200 0.997780 1.145889
O18   O     O_R   0.038240 0.111390 0.951940 -0.563654
C43   C     C_R   0.868135 0.136819 0.934317 0.814203
O19   O     O_R   0.041120 0.094710 0.086750 -0.565779
C44   C     C_R   0.872489 0.114566 0.113896 0.854472
V4    V     V_3+5 0.148810 0.011930 0.002180 1.136707
O20   O     O_3   0.871750 0.936430 0.988010 -0.275740
N1    N     N_R   0.035990 0.634330 0.711686 0.097568
O21   O     O_R   0.865525 0.672799 0.725647 -0.403451
O22   O     O_R   0.056169 0.537136 0.698567 -0.393672
C45   C     C_3   0.354103 0.565227 0.285571 -0.257838
C46   C     C_3   0.189916 0.505522 0.306502 -0.357933
H22   H     H_    0.242649 0.469349 0.346751 0.188439
H23   H     H_    0.061942 0.553720 0.322469 0.122928
H24   H     H_    0.145577 0.443932 0.264148 0.106195
H25   H     H_    0.329925 0.553928 0.231118 0.123274
H26   H     H_    0.494206 0.530100 0.294540 0.108654
N2    N     N_R   0.165498 0.248240 0.336828 0.089314
O23   O     O_R   0.338865 0.244242 0.312997 -0.398535
O24   O     O_R   0.139569 0.225365 0.394589 -0.377962

loop_
_geom_bond_atom_site_label_1
_geom_bond_atom_site_label_2
_geom_bond_distance
_ccdc_geom_bond_type
C45   C46   1.524348 S    
C40   C41   1.462025 S    
C1    O6    1.303663 A    
C19   N2    1.440570 S    
C24   H13   1.084702 S    
C7    H5    1.083849 S    
C6    C16   1.400945 A    
C9    H6    1.076633 S    
C4    C6    1.465040 S    
C13   C14   1.396616 A    
O5    C3    1.297466 A    
C27   C35   1.396737 A    
O14   C42   1.290650 A    
H15   C39   1.084126 S    
V2    O10   2.175758 S    
C5    H3    1.084067 S    
C15   H8    1.082753 S    
C32   C34   1.427781 A    
C27   C39   1.386324 A    
C18   C43   1.469856 S    
O8    V2    2.002320 S    
O14   V3    2.013303 S    
C25   N1    1.439626 S    
C8    C9    1.393559 A    
O1    V2    2.019151 S    
O7    V1    2.141556 S    
C45   H26   1.112018 S    
C30   H20   1.082865 S    
C30   C31   1.388439 A    
O11   C42   1.302645 A    
O9    C4    1.297520 A    
C46   H22   1.105540 S    
C21   H10   1.086096 S    
C24   C42   1.478378 S    
C28   C38   1.424127 A    
O13   V3    2.008999 S    
H16   C36   1.084603 S    
C19   C21   1.500137 S    
C23   H12   1.086168 S    
V3    O20   1.697056 S    
C6    C17   1.395477 A    
C34   C38   1.434582 A    
C33   C37   1.407007 A    
C1    C26   1.486402 S    
C12   C16   1.417537 A    
C26   H14   1.083648 S    
C9    C10   1.417101 A    
C19   C20   1.362794 D    
O4    C2    1.290987 A    
O19   C44   1.303998 A    
C29   H18   1.084288 S    
C46   H24   1.111606 S    
C29   C30   1.386443 A    
C8    H7    1.082981 S    
C37   H21   1.081461 S    
C33   C40   1.416555 A    
C31   C32   1.413135 A    
C3    C20   1.485685 S    
O2    C1    1.293389 A    
C14   C15   1.388301 A    
O12   C41   1.284841 A    
C11   C18   1.419417 A    
N1    O22   1.301319 A    
C41   O16   1.298088 A    
N2    O24   1.301701 A    
C25   C26   1.366197 D    
C16   H4    1.077025 S    
O18   C43   1.297506 A    
C46   H23   1.111151 S    
C22   H11   1.083660 S    
O13   C44   1.294736 A    
O3    C4    1.293189 A    
C20   H9    1.082891 S    
C11   C15   1.407247 A    
O6    V2    2.002040 S    
O9    V2    2.013881 S    
H1    C17   1.083586 S    
C21   C22   1.346556 D    
C28   C39   1.397566 A    
O2    V1    2.013298 S    
O15   C43   1.292913 A    
C27   H17   1.084323 S    
C7    C18   1.397159 A    
C23   C24   1.341183 D    
O1    C2    1.293417 A    
C5    C13   1.404457 A    
O18   V4    2.013787 S    
O5    V1    2.008997 S    
O8    C3    1.302753 A    
C29   C40   1.403289 A    
C10   C12   1.431645 A    
C23   C25   1.496013 S    
C31   H19   1.081110 S    
C22   C44   1.481440 S    
C35   C36   1.398117 A    
C10   C11   1.428584 A    
O4    V1    2.037726 S    
O3    V1    2.032894 S    
V1    O10   1.697108 S    
O15   V3    2.033019 S    
O12   V3    2.037686 S    
N1    O21   1.301139 A    
O17   V4    1.720364 S    
N2    O23   1.301138 A    
O19   V4    2.002343 S    
C36   C37   1.388329 A    
O7    V2    1.721617 S    
C32   C33   1.422870 A    
O16   V4    2.022976 S    
C34   C35   1.422128 A    
V4    O20   2.175746 S    
O17   V3    2.141630 S    
C12   C13   1.422478 A    
C38   C45   1.537991 S    
C5    C17   1.392668 A    
C7    C8    1.389017 A    
O11   V4    2.002458 S    
C45   H25   1.103233 S    
C2    C28   1.462665 S    
H2    C14   1.084308 S    
