data_str_m2_o14_o25_f0_pcu.sym.137
_audit_creation_date              2012-12-10T17:23:09-0500
_audit_creation_method            fapswitch 2.2
_symmetry_space_group_name_H-M    P1
_symmetry_Int_Tables_number       1
_space_group_crystal_system       triclinic
_cell_length_a                    15.837493
_cell_length_b                    10.749478
_cell_length_c                    9.695749
_cell_angle_alpha                 89.356468
_cell_angle_beta                  90.224158
_cell_angle_gamma                 93.137633
_cell_volume                      1648.06329972

loop_
_atom_site_label
_atom_site_type_symbol
_atom_type_description
_atom_site_fract_x
_atom_site_fract_y
_atom_site_fract_z
_atom_type_partial_charge
C1    C     C_R   0.500191 0.263221 0.500811 0.812950
C2    C     C_3   0.083123 0.502547 0.498331 0.103717
C3    C     C_3   0.974702 0.565696 0.608892 -0.240158
C4    C     C_3   0.916949 0.501321 0.499844 0.103765
C5    C     C_3   0.032395 0.621208 0.491717 -0.223783
C6    C     C_3   0.974171 0.554836 0.384563 0.487736
C7    C     C_1   0.174833 0.501919 0.498651 -0.022934
C8    C     C_1   0.825162 0.501434 0.500141 0.010126
C9    C     C_R   0.651813 0.140157 0.579868 -0.146986
C10   C     C_R   0.724745 0.079940 0.614847 -0.069748
C11   C     C_R   0.725417 0.950863 0.607875 -0.126976
C12   C     C_R   0.340168 0.499386 0.499740 0.819271
C13   C     C_R   0.652714 0.881354 0.567951 -0.176574
C14   C     C_R   0.577163 0.940095 0.535919 0.118444
C15   C     C_R   0.577275 0.071174 0.540130 0.085179
C16   C     C_R   0.503006 0.129710 0.502974 -0.130018
C17   C     C_R   0.429364 0.060993 0.466780 -0.179570
C18   C     C_R   0.427254 0.931543 0.465308 -0.009929
C19   C     C_R   0.501795 0.871354 0.498659 -0.117175
C20   C     C_R   0.637538 0.628226 0.135347 0.061754
C21   C     C_R   0.712298 0.647689 0.059982 -0.217161
C22   C     C_R   0.706753 0.658887 0.918362 -0.222063
C23   C     C_R   0.500033 0.736877 0.499463 0.726713
C24   C     C_R   0.629856 0.631179 0.854281 -0.071323
C25   C     C_R   0.564102 0.564377 0.924285 0.151479
C26   C     C_R   0.565107 0.565148 0.072680 0.097392
C27   C     C_R   0.441016 0.431806 0.075800 0.458080
C28   C     C_R   0.438245 0.437484 0.927882 -0.044701
C29   C     C_R   0.659808 0.500704 0.500203 0.752814
C30   C     C_3   0.968641 0.385069 0.506625 0.014375
C31   C     C_3   0.025851 0.437260 0.388598 -0.241028
C32   C     C_1   0.250428 0.500716 0.499116 -0.162026
C33   C     C_1   0.749551 0.501222 0.500438 -0.165261
C34   C     C_3   0.027220 0.447756 0.616207 -0.216681
Cu1   Cu    Cu3+1 0.499990 0.499990 0.640660 0.970297
Cu2   Cu    Cu3+1 0.500010 0.500010 0.359340 0.993142
H1    H     H_    0.047719 0.384456 0.298950 0.145953
H2    H     H_    0.782494 0.904366 0.633188 0.131333
H3    H     H_    0.656651 0.781688 0.561253 0.095729
H4    H     H_    0.769552 0.685576 0.109345 0.160492
H5    H     H_    0.759647 0.699770 0.859969 0.145492
H6    H     H_    0.623377 0.664612 0.751443 0.184585
H7    H     H_    0.059917 0.718287 0.484858 0.156052
H8    H     H_    0.951986 0.617122 0.698867 0.159216
H9    H     H_    0.050493 0.402990 0.711777 0.143497
H10   H     H_    0.373000 0.109472 0.441134 0.178966
H11   H     H_    0.654373 0.240672 0.584704 0.133367
H12   H     H_    0.781028 0.133710 0.646756 0.141066
N1    N     N_R   0.500800 0.501210 0.147910 -0.228175
N2    N     N_R   0.500830 0.501290 0.852040 -0.227298
O1    O     O_R   0.499990 0.319640 0.618810 -0.517643
O2    O     O_R   0.500000 0.319660 0.381240 -0.573347
O3    O     O_R   0.379070 0.499980 0.618770 -0.565285
O4    O     O_R   0.379080 0.500000 0.381190 -0.531003
O5    O     O_R   0.500000 0.680340 0.618760 -0.599569
O6    O     O_R   0.500010 0.680360 0.381190 -0.562966
O7    O     O_R   0.620920 0.500000 0.618810 -0.601654
O8    O     O_R   0.620930 0.500020 0.381230 -0.589347
C35   C     C_2   0.346407 0.860654 0.431999 0.356374
H13   H     H_    0.343752 0.760133 0.424355 0.068451
O9    O     O_2   0.281099 0.913968 0.413374 -0.562317
O10   O     O_3   0.380885 0.359187 0.148496 -0.594331
C36   C     C_3   0.391080 0.230421 0.125815 0.038951
H14   H     H_    0.429618 0.191933 0.209672 0.183625
H15   H     H_    0.424193 0.209705 0.028182 0.151276
C37   C     C_3   0.304305 0.160758 0.126588 -0.348722
H16   H     H_    0.275967 0.166298 0.230914 0.236457
H17   H     H_    0.261883 0.205200 0.051356 0.221127
C38   C     C_3   0.310854 0.024226 0.088431 -0.805225
H18   H     H_    0.332899 0.016983 0.980304 0.260243
H19   H     H_    0.247778 0.974473 0.097819 0.258609
H20   H     H_    0.355962 0.978775 0.158138 0.270610
C39   C     C_2   0.630535 0.731147 0.231163 0.475225
H21   H     H_    0.670799 0.737300 0.321716 0.027590
O11   O     O_2   0.586253 0.817221 0.201562 -0.545714
C40   C     C_2   0.363496 0.376775 0.860373 0.463806
H22   H     H_    0.300903 0.404555 0.887556 0.037435
O12   O     O_2   0.370239 0.289616 0.782561 -0.539100
C41   C     C_2   0.932749 0.253722 0.515428 0.343642
H23   H     H_    0.944509 0.197133 0.606079 0.053775
O13   O     O_2   0.889767 0.210142 0.421125 -0.529995
O14   O     O_3   0.940109 0.610216 0.265541 -0.613255
C42   C     C_3   0.006109 0.648077 0.174534 0.061852
H24   H     H_    0.041069 0.566482 0.141370 0.141096
H25   H     H_    0.050826 0.717501 0.224518 0.150829
C43   C     C_3   0.968394 0.708461 0.046579 -0.332071
H26   H     H_    0.923539 0.640258 0.995444 0.220083
H27   H     H_    0.932918 0.789936 0.077857 0.228186
C44   C     C_3   0.037107 0.751700 0.944096 -0.917558
H28   H     H_    0.082726 0.820155 0.992890 0.264278
H29   H     H_    0.007818 0.797079 0.853727 0.253276
H30   H     H_    0.071441 0.670940 0.907616 0.258894

loop_
_geom_bond_atom_site_label_1
_geom_bond_atom_site_label_2
_ccdc_geom_bond_type
C37   H17   S    
C24   C25   A    
C36   H15   S    
C6    O14   S    
Cu1   O3    S    
C24   H6    S    
C39   H21   S    
Cu1   Cu2   S    
C4    C8    S    
C23   O6    A    
C40   O12   D    
Cu2   O8    S    
C5    C6    S    
C43   H27   S    
C22   H5    S    
C15   C16   A    
C29   C33   S    
C18   C19   A    
C38   H19   S    
C25   N2    A    
C28   N2    A    
C2    C7    S    
C16   C17   A    
C44   H29   S    
C9    C10   A    
C12   O3    A    
Cu2   O2    S    
C2    C34   S    
C6    C31   S    
C5    H7    S    
C36   C37   S    
C35   H13   S    
C21   C22   A    
C12   C32   S    
C39   O11   D    
C3    H8    S    
C35   O9    D    
C30   C34   S    
Cu1   O5    S    
C17   H10   S    
C4    C6    S    
C26   N1    A    
C41   O13   D    
C43   H26   S    
C3    C34   S    
C25   C26   A    
C31   H1    S    
C2    C31   S    
C38   H20   S    
C19   C23   S    
O10   C36   S    
Cu2   O6    S    
C27   O10   S    
C42   H24   S    
C20   C21   A    
Cu1   N2    S    
C17   C18   A    
C1    C16   S    
C40   H22   S    
C44   H30   S    
C1    O1    A    
C34   H9    S    
C30   C41   S    
C42   H25   S    
C29   O7    A    
C9    H11   S    
Cu1   O1    S    
C22   C24   A    
C41   H23   S    
C2    C5    S    
C3    C4    S    
C28   C40   S    
C7    C32   T    
C14   C19   A    
C3    C5    S    
C43   C44   S    
C23   O5    A    
Cu1   O7    S    
C9    C15   A    
C10   H12   S    
C11   C13   A    
C30   C31   S    
C21   H4    S    
C20   C26   A    
C20   C39   S    
C37   H16   S    
C8    C33   T    
C38   H18   S    
C1    O2    A    
C4    C30   S    
C13   H3    S    
Cu2   O4    S    
C10   C11   A    
C36   H14   S    
C37   C38   S    
C18   C35   S    
C42   C43   S    
C29   O8    A    
O14   C42   S    
C27   C28   A    
C14   C15   A    
C11   H2    S    
C44   H28   S    
C13   C14   A    
C12   O4    A    
Cu2   N1    S    
C27   N1    A    
