data_str_m4_o22_o22_f0_acs.sym.88
_audit_creation_date              2012-12-11T15:07:10-0500
_audit_creation_method            fapswitch 2.2
_symmetry_space_group_name_H-M    P1
_symmetry_Int_Tables_number       1
_space_group_crystal_system       monoclinic
_cell_length_a                    19.699861
_cell_length_b                    11.337545
_cell_length_c                    18.707398
_cell_angle_alpha                 90.0
_cell_angle_beta                  91.098119
_cell_angle_gamma                 90.0
_cell_volume                      4177.49369003

loop_
_atom_site_label
_atom_site_type_symbol
_atom_type_description
_atom_site_fract_x
_atom_site_fract_y
_atom_site_fract_z
_atom_type_partial_charge
C1    C     C_R   0.760164 0.526779 0.640734 0.537482
C2    C     C_R   0.239836 0.526779 0.359266 0.537483
C3    C     C_R   0.260164 0.026780 0.640734 0.537483
C4    C     C_R   0.739836 0.026779 0.359266 0.537483
C5    C     C_3   0.812346 0.136411 0.448206 -0.264491
C6    C     C_3   0.187654 0.136411 0.551794 -0.264491
C7    C     C_3   0.312346 0.636411 0.448206 -0.264491
C8    C     C_3   0.687654 0.636411 0.551794 -0.264491
C9    C     C_3   0.749046 0.061905 0.434494 0.068182
C10   C     C_3   0.250954 0.061906 0.565506 0.068182
C11   C     C_3   0.249046 0.561905 0.434494 0.068182
C12   C     C_3   0.750954 0.561905 0.565506 0.068182
C13   C     C_3   0.761526 0.094892 0.572169 0.057738
C14   C     C_3   0.238474 0.094892 0.427831 0.057738
C15   C     C_3   0.261526 0.594892 0.572169 0.057738
C16   C     C_3   0.738474 0.594892 0.427831 0.057738
C17   C     C_3   0.754618 0.962720 0.558222 -0.270055
C18   C     C_3   0.245382 0.962720 0.441778 -0.270055
C19   C     C_3   0.254618 0.462720 0.558222 -0.270055
C20   C     C_3   0.745382 0.462720 0.441778 -0.270055
C21   C     C_3   0.824421 0.138436 0.529800 -0.213617
C22   C     C_3   0.175579 0.138436 0.470200 -0.213616
C23   C     C_3   0.324421 0.638436 0.529800 -0.213616
C24   C     C_3   0.675579 0.638436 0.470200 -0.213616
C25   C     C_3   0.004658 0.208490 0.459323 -0.297826
C26   C     C_3   0.995342 0.208490 0.540677 -0.297826
C27   C     C_3   0.504658 0.708490 0.459323 -0.297826
C28   C     C_3   0.495342 0.708490 0.540677 -0.297826
C29   C     C_3   0.065000 0.410552 0.478411 -0.177067
C30   C     C_3   0.935000 0.410552 0.521588 -0.177067
C31   C     C_3   0.565000 0.910552 0.478412 -0.177067
C32   C     C_3   0.435000 0.910552 0.521588 -0.177067
C33   C     C_3   0.941513 0.392035 0.439929 0.118514
C34   C     C_3   0.058487 0.392035 0.560071 0.118515
C35   C     C_3   0.441513 0.892035 0.439929 0.118515
C36   C     C_3   0.558487 0.892035 0.560071 0.118515
C37   C     C_3   0.012066 0.336336 0.431461 0.047434
C38   C     C_3   0.987933 0.336336 0.568539 0.047433
C39   C     C_3   0.512066 0.836336 0.431461 0.047434
C40   C     C_3   0.487933 0.836336 0.568539 0.047433
C41   C     C_3   0.813112 0.008545 0.045232 0.175153
C42   C     C_3   0.186888 0.008545 0.954768 0.175153
C43   C     C_3   0.313112 0.508545 0.045232 0.175153
C44   C     C_3   0.686888 0.508545 0.954768 0.175153
C45   C     C_R   0.774622 0.122795 0.648491 0.529542
C46   C     C_R   0.225378 0.122795 0.351509 0.529541
C47   C     C_R   0.274622 0.622795 0.648491 0.529542
C48   C     C_R   0.725378 0.622795 0.351509 0.529541
C49   C     C_3   0.820351 0.030500 0.966164 -0.184164
C50   C     C_3   0.179649 0.030500 0.033835 -0.184164
C51   C     C_3   0.320351 0.530500 0.966164 -0.184164
C52   C     C_3   0.679649 0.530500 0.033835 -0.184164
C53   C     C_3   0.683798 0.029613 0.029605 -0.268446
C54   C     C_3   0.316202 0.029613 0.970395 -0.268445
C55   C     C_3   0.183798 0.529613 0.029605 -0.268446
C56   C     C_3   0.816202 0.529613 0.970395 -0.268445
C57   C     C_3   0.756063 0.201330 0.060857 -0.250770
C58   C     C_3   0.243937 0.201330 0.939143 -0.250769
C59   C     C_3   0.256063 0.701330 0.060857 -0.250770
C60   C     C_3   0.743937 0.701330 0.939143 -0.250769
C61   C     C_3   0.747923 0.069336 0.074318 0.077214
C62   C     C_3   0.252077 0.069336 0.925682 0.077214
C63   C     C_3   0.247922 0.569336 0.074318 0.077214
C64   C     C_3   0.752077 0.569336 0.925682 0.077214
C65   C     C_3   0.760149 0.102907 0.935311 0.033186
C66   C     C_3   0.239851 0.102907 0.064689 0.033186
C67   C     C_3   0.260149 0.602907 0.935311 0.033186
C68   C     C_3   0.739851 0.602907 0.064689 0.033186
C69   C     C_3   0.696662 0.028091 0.947748 -0.282836
C70   C     C_3   0.303338 0.028090 0.052252 -0.282836
C71   C     C_3   0.196662 0.528091 0.947748 -0.282836
C72   C     C_3   0.803338 0.528091 0.052252 -0.282836
C73   C     C_3   0.749916 0.219163 0.978811 -0.232392
C74   C     C_3   0.250084 0.219162 0.021189 -0.232392
C75   C     C_3   0.249916 0.719163 0.978811 -0.232393
C76   C     C_3   0.750084 0.719162 0.021189 -0.232392
C77   C     C_3   0.005140 0.480841 0.040124 -0.224728
C78   C     C_3   0.994859 0.480841 0.959876 -0.224728
C79   C     C_3   0.505141 0.980841 0.040124 -0.224728
C80   C     C_3   0.494859 0.980841 0.959876 -0.224728
C81   C     C_3   0.063694 0.277352 0.027280 -0.206545
C82   C     C_3   0.936306 0.277352 0.972719 -0.206544
C83   C     C_3   0.563694 0.777352 0.027280 -0.206545
C84   C     C_3   0.436306 0.777352 0.972719 -0.206544
C85   C     C_3   0.941874 0.297101 0.054375 -0.263571
C86   C     C_3   0.058126 0.297101 0.945625 -0.263571
C87   C     C_3   0.441874 0.797101 0.054375 -0.263570
C88   C     C_3   0.558126 0.797101 0.945625 -0.263571
C89   C     C_R   0.965313 0.342797 0.643301 0.548588
C90   C     C_R   0.034687 0.342797 0.356699 0.548588
C91   C     C_R   0.465313 0.842796 0.643301 0.548588
C92   C     C_R   0.534687 0.842797 0.356699 0.548588
C93   C     C_3   0.010977 0.352784 0.069237 0.050394
C94   C     C_3   0.989023 0.352784 0.930763 0.050394
C95   C     C_3   0.510977 0.852784 0.069237 0.050394
C96   C     C_3   0.489023 0.852784 0.930763 0.050394
C97   C     C_R   0.760692 0.533996 0.848851 0.551661
C98   C     C_R   0.239308 0.533996 0.151149 0.551661
C99   C     C_R   0.260692 0.033996 0.848851 0.551661
C100  C     C_R   0.739308 0.033996 0.151149 0.551661
C101  C     C_R   0.774187 0.132003 0.858490 0.531733
C102  C     C_R   0.225813 0.132003 0.141510 0.531733
C103  C     C_R   0.274187 0.632003 0.858490 0.531734
C104  C     C_R   0.725813 0.632003 0.141510 0.531732
C105  C     C_R   0.968265 0.353545 0.854094 0.529066
C106  C     C_R   0.031735 0.353545 0.145906 0.529065
C107  C     C_R   0.468265 0.853545 0.854094 0.529065
C108  C     C_R   0.531735 0.853545 0.145906 0.529065
C109  C     C_3   0.689056 0.136271 0.461817 -0.228199
C110  C     C_3   0.310943 0.136271 0.538182 -0.228199
C111  C     C_3   0.189056 0.636271 0.461817 -0.228199
C112  C     C_3   0.810943 0.636271 0.538182 -0.228199
C113  C     C_3   0.696071 0.153192 0.542475 -0.243241
C114  C     C_3   0.303929 0.153191 0.457525 -0.243241
C115  C     C_3   0.196071 0.653192 0.542475 -0.243241
C116  C     C_3   0.803929 0.653191 0.457525 -0.243241
C117  C     C_3   0.758903 0.944997 0.477732 -0.215298
C118  C     C_3   0.241097 0.944998 0.522268 -0.215297
C119  C     C_3   0.258903 0.444997 0.477732 -0.215297
C120  C     C_3   0.741097 0.444997 0.522268 -0.215297
Cr1   Cr    Cr6+3 0.885690 0.492860 0.745310 0.977184
Cr2   Cr    Cr6+3 0.114310 0.492860 0.254690 0.977184
Cr3   Cr    Cr6+3 0.385690 0.992860 0.745310 0.977184
Cr4   Cr    Cr6+3 0.614310 0.992860 0.254690 0.977184
Cr5   Cr    Cr6+3 0.729880 0.332270 0.748190 0.979177
Cr6   Cr    Cr6+3 0.270120 0.332270 0.251810 0.979178
Cr7   Cr    Cr6+3 0.229880 0.832270 0.748190 0.979177
Cr8   Cr    Cr6+3 0.770120 0.832270 0.251810 0.979178
Cr9   Cr    Cr6+3 0.888120 0.178590 0.753010 0.987229
Cr10  Cr    Cr6+3 0.111880 0.178590 0.246990 0.987229
Cr11  Cr    Cr6+3 0.388120 0.678590 0.753010 0.987229
Cr12  Cr    Cr6+3 0.611880 0.678590 0.246990 0.987229
H1    H     H_    0.640350 0.096031 0.448226 0.144387
H2    H     H_    0.359650 0.096031 0.551774 0.144387
H3    H     H_    0.140350 0.596031 0.448226 0.144387
H4    H     H_    0.859650 0.596031 0.551774 0.144387
H5    H     H_    0.864314 0.071936 0.540897 0.131188
H6    H     H_    0.135686 0.071936 0.459103 0.131188
H7    H     H_    0.364314 0.571936 0.540897 0.131188
H8    H     H_    0.635686 0.571936 0.459103 0.131188
H9    H     H_    0.811863 0.916691 0.468436 0.130585
H10   H     H_    0.188137 0.916691 0.531564 0.130585
H11   H     H_    0.311863 0.416691 0.468436 0.130585
H12   H     H_    0.688137 0.416691 0.531564 0.130585
H13   H     H_    0.795582 0.913366 0.586764 0.120193
H14   H     H_    0.204418 0.913366 0.413236 0.120194
H15   H     H_    0.295582 0.413366 0.586764 0.120193
H16   H     H_    0.704418 0.413366 0.413237 0.120194
H17   H     H_    0.046811 0.153953 0.444157 0.141728
H18   H     H_    0.953188 0.153953 0.555843 0.141728
H19   H     H_    0.546811 0.653953 0.444157 0.141728
H20   H     H_    0.453188 0.653953 0.555843 0.141728
H21   H     H_    0.960959 0.164233 0.432804 0.109326
H22   H     H_    0.039041 0.164233 0.567196 0.109325
H23   H     H_    0.460959 0.664233 0.432804 0.109326
H24   H     H_    0.539041 0.664233 0.567196 0.109326
H25   H     H_    0.617298 0.896595 0.461986 0.069575
H26   H     H_    0.382702 0.896594 0.538014 0.069575
H27   H     H_    0.117298 0.396594 0.461986 0.069575
H28   H     H_    0.882702 0.396595 0.538014 0.069575
H29   H     H_    0.599021 0.830205 0.578117 0.084043
H30   H     H_    0.400979 0.830206 0.421883 0.084043
H31   H     H_    0.099021 0.330206 0.578117 0.084043
H32   H     H_    0.900979 0.330206 0.421883 0.084043
H33   H     H_    0.947111 0.504408 0.532089 0.193401
H34   H     H_    0.052889 0.504408 0.467910 0.193402
H35   H     H_    0.447111 0.004408 0.532089 0.193402
H36   H     H_    0.552889 0.004408 0.467911 0.193402
H37   H     H_    0.805424 0.915359 0.052972 0.120852
H38   H     H_    0.194575 0.915359 0.947028 0.120853
H39   H     H_    0.305424 0.415359 0.052972 0.120852
H40   H     H_    0.694575 0.415359 0.947028 0.120853
H41   H     H_    0.687555 0.223118 0.434838 0.108298
H42   H     H_    0.312445 0.223119 0.565162 0.108297
H43   H     H_    0.187555 0.723118 0.434837 0.108298
H44   H     H_    0.812445 0.723119 0.565162 0.108297
H45   H     H_    0.868251 0.075171 0.956948 0.157654
H46   H     H_    0.131748 0.075171 0.043052 0.157654
H47   H     H_    0.368251 0.575171 0.956948 0.157654
H48   H     H_    0.631748 0.575171 0.043052 0.157654
H49   H     H_    0.824403 0.944492 0.937871 0.077980
H50   H     H_    0.175597 0.944492 0.062129 0.077979
H51   H     H_    0.324403 0.444492 0.937871 0.077980
H52   H     H_    0.675597 0.444492 0.062129 0.077979
H53   H     H_    0.662905 0.947280 0.048785 0.112644
H54   H     H_    0.337095 0.947280 0.951215 0.112644
H55   H     H_    0.162905 0.447280 0.048785 0.112644
H56   H     H_    0.837095 0.447280 0.951215 0.112644
H57   H     H_    0.704600 0.937006 0.928486 0.107126
H58   H     H_    0.295399 0.937006 0.071514 0.107126
H59   H     H_    0.204600 0.437006 0.928486 0.107126
H60   H     H_    0.795400 0.437006 0.071514 0.107126
H61   H     H_    0.715909 0.251857 0.088435 0.094656
H62   H     H_    0.284091 0.251857 0.911565 0.094656
H63   H     H_    0.215909 0.751857 0.088435 0.094656
H64   H     H_    0.784091 0.751858 0.911565 0.094656
H65   H     H_    0.805689 0.233100 0.081773 0.156670
H66   H     H_    0.194310 0.233100 0.918226 0.156670
H67   H     H_    0.305689 0.733100 0.081773 0.156670
H68   H     H_    0.694311 0.733100 0.918226 0.156670
H69   H     H_    0.781389 0.291114 0.960692 0.098591
H70   H     H_    0.218611 0.291114 0.039308 0.098591
H71   H     H_    0.281388 0.791114 0.960692 0.098591
H72   H     H_    0.718611 0.791114 0.039308 0.098591
H73   H     H_    0.696411 0.243973 0.968117 0.113492
H74   H     H_    0.303589 0.243973 0.031883 0.113492
H75   H     H_    0.196411 0.743973 0.968117 0.113492
H76   H     H_    0.803589 0.743973 0.031883 0.113492
H77   H     H_    0.644666 0.097481 0.038801 0.124291
H78   H     H_    0.355334 0.097481 0.961198 0.124291
H79   H     H_    0.144666 0.597481 0.038801 0.124291
H80   H     H_    0.855334 0.597481 0.961198 0.124291
H81   H     H_    0.693594 0.244888 0.557257 0.129203
H82   H     H_    0.306406 0.244888 0.442743 0.129203
H83   H     H_    0.193594 0.744889 0.557257 0.129203
H84   H     H_    0.806406 0.744888 0.442743 0.129203
H85   H     H_    0.652339 0.065218 0.917822 0.112931
H86   H     H_    0.347661 0.065218 0.082178 0.112931
H87   H     H_    0.152339 0.565218 0.917822 0.112931
H88   H     H_    0.847661 0.565219 0.082178 0.112931
H89   H     H_    0.049512 0.533861 0.054266 0.134231
H90   H     H_    0.950488 0.533861 0.945734 0.134231
H91   H     H_    0.549512 0.033861 0.054266 0.134231
H92   H     H_    0.450488 0.033861 0.945734 0.134231
H93   H     H_    0.962130 0.527471 0.065360 0.109353
H94   H     H_    0.037870 0.527471 0.934640 0.109353
H95   H     H_    0.462130 0.027471 0.065360 0.109353
H96   H     H_    0.537870 0.027472 0.934640 0.109353
H97   H     H_    0.615018 0.786084 0.048404 0.115404
H98   H     H_    0.384982 0.786084 0.951596 0.115404
H99   H     H_    0.115018 0.286084 0.048404 0.115404
H100  H     H_    0.884982 0.286084 0.951596 0.115404
H101  H     H_    0.599486 0.854298 0.926696 0.105561
H102  H     H_    0.400514 0.854298 0.073304 0.105561
H103  H     H_    0.099486 0.354298 0.926696 0.105561
H104  H     H_    0.900514 0.354298 0.073304 0.105561
H105  H     H_    0.938952 0.213117 0.083631 0.189433
H106  H     H_    0.061048 0.213117 0.916369 0.189433
H107  H     H_    0.438952 0.713117 0.083631 0.189433
H108  H     H_    0.561048 0.713117 0.916369 0.189433
H109  H     H_    0.950212 0.184229 0.963011 0.130099
H110  H     H_    0.049787 0.184229 0.036989 0.130099
H111  H     H_    0.450212 0.684229 0.963011 0.130099
H112  H     H_    0.549787 0.684229 0.036989 0.130099
H113  H     H_    0.651748 0.116717 0.567678 0.188487
H114  H     H_    0.348252 0.116717 0.432322 0.188486
H115  H     H_    0.151748 0.616717 0.567678 0.188487
H116  H     H_    0.848252 0.616716 0.432322 0.188486
H117  H     H_    0.724203 0.875212 0.459429 0.113714
H118  H     H_    0.275797 0.875212 0.540571 0.113714
H119  H     H_    0.224203 0.375212 0.459429 0.113714
H120  H     H_    0.775797 0.375212 0.540571 0.113714
H121  H     H_    0.705847 0.927026 0.575385 0.110042
H122  H     H_    0.294153 0.927026 0.424615 0.110042
H123  H     H_    0.205847 0.427027 0.575385 0.110042
H124  H     H_    0.794153 0.427026 0.424615 0.110041
H125  H     H_    0.856589 0.097056 0.421201 0.120802
H126  H     H_    0.143411 0.097056 0.578799 0.120802
H127  H     H_    0.356589 0.597056 0.421201 0.120802
H128  H     H_    0.643411 0.597056 0.578799 0.120802
H129  H     H_    0.804948 0.226542 0.426837 0.097087
H130  H     H_    0.195052 0.226542 0.573163 0.097087
H131  H     H_    0.304948 0.726542 0.426837 0.097087
H132  H     H_    0.695052 0.726542 0.573163 0.097087
H133  H     H_    0.842527 0.224581 0.548463 0.110277
H134  H     H_    0.157473 0.224581 0.451537 0.110277
H135  H     H_    0.342527 0.724581 0.548463 0.110277
H136  H     H_    0.657473 0.724581 0.451537 0.110277
O1    O     O_R   0.957210 0.449410 0.665480 -0.497273
O2    O     O_R   0.042790 0.449410 0.334520 -0.497270
O3    O     O_R   0.457210 0.949410 0.665480 -0.497272
O4    O     O_R   0.542790 0.949410 0.334520 -0.497272
O5    O     O_R   0.736260 0.212010 0.826560 -0.520184
O6    O     O_R   0.263740 0.212010 0.173440 -0.520184
O7    O     O_R   0.236260 0.712010 0.826560 -0.520183
O8    O     O_R   0.763740 0.712010 0.173440 -0.520185
O9    O     O_R   0.832520 0.095300 0.836000 -0.537158
O10   O     O_R   0.167480 0.095300 0.164000 -0.537157
O11   O     O_R   0.332520 0.595300 0.836000 -0.537158
O12   O     O_R   0.667480 0.595300 0.164000 -0.537157
O13   O     O_R   0.946380 0.253940 0.826940 -0.511752
O14   O     O_R   0.053620 0.253940 0.173060 -0.511752
O15   O     O_R   0.446380 0.753940 0.826940 -0.511752
O16   O     O_R   0.553620 0.753940 0.173060 -0.511752
O17   O     O_3   0.834560 0.334570 0.748840 -0.274960
O18   O     O_3   0.165440 0.334570 0.251160 -0.274961
O19   O     O_3   0.334560 0.834570 0.748840 -0.274960
O20   O     O_3   0.665440 0.834570 0.251160 -0.274961
O21   O     O_R   0.820730 0.541240 0.668250 -0.519150
O22   O     O_R   0.179270 0.541240 0.331750 -0.519150
O23   O     O_R   0.320730 0.041240 0.668250 -0.519150
O24   O     O_R   0.679270 0.041240 0.331750 -0.519150
O25   O     O_R   0.714240 0.455060 0.663710 -0.532883
O26   O     O_R   0.285760 0.455060 0.336290 -0.532883
O27   O     O_R   0.214240 0.955060 0.663710 -0.532883
O28   O     O_R   0.785760 0.955060 0.336290 -0.532883
O29   O     O_R   0.736780 0.204870 0.675910 -0.523939
O30   O     O_R   0.263220 0.204870 0.324090 -0.523939
O31   O     O_R   0.236780 0.704870 0.675910 -0.523940
O32   O     O_R   0.763220 0.704870 0.324090 -0.523937
O33   O     O_R   0.833070 0.087590 0.673490 -0.527175
O34   O     O_R   0.166930 0.087590 0.326510 -0.527175
O35   O     O_R   0.333070 0.587590 0.673490 -0.527175
O36   O     O_R   0.666930 0.587590 0.326510 -0.527176
O37   O     O_R   0.946890 0.246800 0.676300 -0.523279
O38   O     O_R   0.053110 0.246800 0.323700 -0.523280
O39   O     O_R   0.446890 0.746800 0.676300 -0.523279
O40   O     O_R   0.553110 0.746800 0.323700 -0.523279
O41   O     O_R   0.956650 0.457120 0.827980 -0.545806
O42   O     O_R   0.043350 0.457120 0.172020 -0.545809
O43   O     O_R   0.456650 0.957120 0.827980 -0.545807
O44   O     O_R   0.543350 0.957120 0.172020 -0.545807
O45   O     O_R   0.820220 0.548390 0.818890 -0.521027
O46   O     O_R   0.179780 0.548390 0.181110 -0.521027
O47   O     O_R   0.320220 0.048390 0.818890 -0.521027
O48   O     O_R   0.679780 0.048390 0.181110 -0.521028
O49   O     O_R   0.713680 0.462770 0.826210 -0.488898
O50   O     O_R   0.286320 0.462770 0.173790 -0.488897
O51   O     O_R   0.213680 0.962770 0.826210 -0.488899
O52   O     O_R   0.786320 0.962770 0.173790 -0.488897
O53   O     O_3   0.935982 0.501406 0.402536 -0.580937
C121  C     C_3   0.904035 0.489352 0.333574 0.005988
H137  H     H_    0.848613 0.481858 0.337218 0.102639
H138  H     H_    0.920920 0.410216 0.303777 0.136574
C122  C     C_3   0.917702 0.598975 0.288786 -0.320246
H139  H     H_    0.972653 0.608895 0.278669 0.175718
H140  H     H_    0.890263 0.591994 0.236519 0.094292
H141  H     H_    0.899852 0.679039 0.316927 0.150108
O54   O     O_3   0.064018 0.501406 0.597464 -0.580939
C123  C     C_3   0.095964 0.489352 0.666426 0.005989
H142  H     H_    0.151386 0.481858 0.662783 0.102638
H143  H     H_    0.079079 0.410215 0.696222 0.136576
C124  C     C_3   0.082296 0.598974 0.711215 -0.320241
H144  H     H_    0.027344 0.608908 0.721317 0.175724
H145  H     H_    0.109723 0.591981 0.763488 0.094283
H146  H     H_    0.100160 0.679035 0.683081 0.150105
O55   O     O_3   0.435982 0.001406 0.402536 -0.580939
C125  C     C_3   0.404035 0.989352 0.333574 0.005989
H147  H     H_    0.348613 0.981858 0.337218 0.102639
H148  H     H_    0.420921 0.910216 0.303777 0.136575
C126  C     C_3   0.417703 0.098975 0.288786 -0.320243
H149  H     H_    0.472655 0.108904 0.278678 0.175722
H150  H     H_    0.390271 0.091987 0.236514 0.094287
H151  H     H_    0.399845 0.179038 0.316923 0.150107
O56   O     O_3   0.564018 0.001406 0.597464 -0.580938
C127  C     C_3   0.595965 0.989351 0.666426 0.005988
H152  H     H_    0.651387 0.981857 0.662783 0.102638
H153  H     H_    0.579079 0.910215 0.696223 0.136575
C128  C     C_3   0.582297 0.098974 0.711215 -0.320242
H154  H     H_    0.527344 0.108904 0.721321 0.175723
H155  H     H_    0.609727 0.091983 0.763487 0.094285
H156  H     H_    0.600157 0.179036 0.683079 0.150107
O57   O     O_3   0.872226 0.045635 0.083577 -0.582328
C129  C     C_3   0.923287 0.957934 0.082262 -0.148179
H157  H     H_    0.936087 0.932749 0.026670 0.079967
H158  H     H_    0.907777 0.878721 0.112978 0.134224
H159  H     H_    0.970041 0.993776 0.108141 0.136130
O58   O     O_3   0.127774 0.045635 0.916423 -0.582328
C130  C     C_3   0.076713 0.957934 0.917737 -0.148180
H160  H     H_    0.063915 0.932744 0.973329 0.079966
H161  H     H_    0.092222 0.878722 0.887019 0.134227
H162  H     H_    0.029958 0.993777 0.891861 0.136129
O59   O     O_3   0.372226 0.545635 0.083577 -0.582328
C131  C     C_3   0.423287 0.457934 0.082262 -0.148179
H163  H     H_    0.436087 0.432749 0.026670 0.079967
H164  H     H_    0.407777 0.378721 0.112978 0.134224
H165  H     H_    0.470041 0.493776 0.108141 0.136130
O60   O     O_3   0.627774 0.545635 0.916423 -0.582328
C132  C     C_3   0.576713 0.457934 0.917737 -0.148180
H166  H     H_    0.563915 0.432744 0.973329 0.079966
H167  H     H_    0.592222 0.378722 0.887019 0.134227
H168  H     H_    0.529958 0.493777 0.891861 0.136129

loop_
_geom_bond_atom_site_label_1
_geom_bond_atom_site_label_2
_ccdc_geom_bond_type
C78   H94   S    
C121  H138  S    
C82   C94   S    
C119  H11   S    
C10   C110  S    
C7    H127  S    
C120  H12   S    
C41   C61   S    
C116  H84   S    
C53   C69   S    
C104  O12   A    
O55   C125  S    
C43   C63   S    
C43   O59   S    
C124  H144  S    
C44   C64   S    
C70   H86   S    
C50   H46   S    
C63   C98   S    
C51   H51   S    
C109  H41   S    
C121  C122  S    
C28   C40   S    
C30   C38   S    
C42   H38   S    
Cr9   O37   S    
C56   C72   S    
C105  O13   A    
C21   H5    S    
C8    H132  S    
C84   H98   S    
C18   C118  S    
C54   H54   S    
C81   C86   S    
C108  O16   A    
C132  H168  S    
C110  H42   S    
C83   C88   S    
C5    H129  S    
C90   O2    A    
C72   H88   S    
C41   C49   S    
O60   C132  S    
Cr8   O32   S    
C49   H45   S    
Cr5   O17   S    
Cr2   O46   S    
C123  H142  S    
C109  H1    S    
Cr7   O19   S    
Cr8   O20   S    
C118  H118  S    
C26   C38   S    
Cr5   O5    S    
Cr10  O38   S    
C59   H63   S    
C14   C114  S    
C41   H37   S    
C83   H112  S    
C60   C76   S    
C24   H8    S    
C120  H120  S    
C81   H110  S    
C44   H40   S    
C47   O31   A    
C22   H134  S    
C54   C70   S    
C68   C72   S    
C97   O49   A    
C35   O55   S    
C115  H83   S    
C98   O46   A    
C102  O6    A    
C99   O51   A    
C31   H25   S    
C19   H123  S    
C64   C97   S    
C36   H29   S    
C15   C115  S    
C20   C120  S    
C70   H58   S    
Cr7   O27   S    
C124  H146  S    
Cr8   O28   S    
C75   H71   S    
C57   H65   S    
C52   H52   S    
Cr7   O7    S    
Cr4   O24   S    
C57   C61   S    
C82   C85   S    
C59   C63   S    
C60   C64   S    
Cr9   O17   S    
C33   O53   S    
C13   C45   S    
C66   C70   S    
C78   C94   S    
C113  H113  S    
C42   O58   S    
C23   H135  S    
C86   H106  S    
C41   O57   S    
C95   C108  S    
C60   H68   S    
C62   C99   S    
C5    C21   S    
O53   C121  S    
C81   H99   S    
C130  H160  S    
C31   C36   S    
C48   O32   A    
C55   C71   S    
C76   H76   S    
Cr6   O26   S    
C6    C22   S    
C128  H154  S    
C114  H82   S    
Cr2   O22   S    
C65   C101  S    
Cr10  O18   S    
C43   C51   S    
Cr11  O15   S    
C67   C103  S    
C3    O23   A    
C18   H122  S    
C88   H101  S    
C37   C90   S    
Cr11  O35   S    
C66   C74   S    
C131  H163  S    
C25   H17   S    
C57   C73   S    
C122  H140  S    
C105  O41   A    
C85   C93   S    
C107  O43   A    
C87   C95   S    
Cr5   O49   S    
C20   H16   S    
C7    H131  S    
C2    O22   A    
C45   O33   A    
C104  O8    A    
C85   H105  S    
C44   C52   S    
Cr6   O6    S    
C50   H50   S    
C1    C12   S    
C75   H75   S    
C112  H4    S    
C51   H47   S    
C2    C11   S    
C126  H150  S    
Cr12  O12   S    
C87   H107  S    
C118  H10   S    
C43   H39   S    
C25   C26   S    
C106  O14   A    
C36   O56   S    
C8    H128  S    
C5    C9    S    
C119  H119  S    
C93   C106  S    
C127  H153  S    
C8    C12   S    
C5    H125  S    
C6    H130  S    
C51   C67   S    
C78   H90   S    
C49   H49   S    
C112  H44   S    
C42   C50   S    
C128  H156  S    
C125  H148  S    
Cr6   O18   S    
Cr3   O47   S    
C110  H2    S    
C61   C100  S    
C67   C75   S    
Cr1   O1    S    
C12   C112  S    
C58   C74   S    
C127  C128  S    
Cr3   O3    S    
C73   H73   S    
Cr4   O4    S    
C30   H33   S    
C79   H91   S    
C68   C76   S    
C125  C126  S    
C131  H165  S    
C13   C17   S    
C98   O50   A    
C14   C22   S    
C99   O47   A    
C103  O7    A    
C13   C21   S    
C27   C39   S    
C7    C23   S    
C8    C24   S    
C130  H162  S    
C40   C91   S    
Cr7   O31   S    
C46   O34   A    
C54   H78   S    
Cr1   O41   S    
C129  H157  S    
Cr3   O43   S    
C71   H59   S    
C4    C9    S    
C72   H60   S    
C24   H136  S    
C91   O39   A    
C132  H167  S    
C58   C62   S    
C88   C96   S    
C94   C105  S    
C77   H93   S    
C112  C116  S    
O57   C129  S    
C14   C46   S    
C77   C78   S    
C15   C19   S    
Cr9   O33   S    
C123  H143  S    
C69   H85   S    
C44   O60   S    
C101  O9    A    
C92   O4    A    
C29   H34   S    
C108  O44   A    
C88   H108  S    
C71   H87   S    
C2    O26   A    
Cr11  O39   S    
Cr7   O51   S    
C116  H116  S    
Cr8   O52   S    
C123  C124  S    
O59   C131  S    
C15   C47   S    
Cr3   O23   S    
Cr11  O11   S    
C17   C117  S    
C42   C62   S    
C121  H137  S    
C19   C119  S    
Cr10  O34   S    
C9    C109  S    
Cr12  O40   S    
C16   C116  S    
C100  O48   A    
C20   H124  S    
C115  H115  S    
C124  H145  S    
C27   H23   S    
C34   O54   S    
C25   H21   S    
C26   H18   S    
C117  H117  S    
C106  O42   A    
C74   H70   S    
C18   H14   S    
C11   C111  S    
C29   C34   S    
C58   H62   S    
C33   C37   S    
C82   H109  S    
C45   O29   A    
C35   C39   S    
C4    O24   A    
C79   C95   S    
C89   O37   A    
C80   H92   S    
Cr5   O29   S    
C76   H72   S    
Cr1   O17   S    
C80   H96   S    
Cr3   O19   S    
Cr4   O20   S    
Cr12  O16   S    
C96   C107  S    
C89   O1    A    
C39   C92   S    
C27   H19   S    
C14   C18   S    
C107  O15   A    
C68   C104  S    
C17   H13   S    
C6    C10   S    
C1    O25   A    
C54   C62   S    
C22   H6    S    
C6    H126  S    
C103  O11   A    
C111  H3    S    
C114  H114  S    
C73   H69   S    
C65   C69   S    
C77   C93   S    
C131  H164  S    
Cr4   O44   S    
C84   H111  S    
C67   C71   S    
C122  H139  S    
C19   H15   S    
Cr2   O2    S    
C3    O27   A    
C31   H36   S    
C53   H77   S    
Cr12  O36   S    
C32   H35   S    
C29   C37   S    
C92   O40   A    
C46   O30   A    
C30   H28   S    
C85   H104  S    
C9    C117  S    
O54   C123  S    
C66   C102  S    
C117  H9    S    
C84   C87   S    
C113  H81   S    
C11   C119  S    
C16   C48   S    
C29   H27   S    
C126  H149  S    
C7    C11   S    
C38   C89   S    
C17   H121  S    
C87   H102  S    
C49   C65   S    
C111  H43   S    
C23   H7    S    
C56   H80   S    
C91   O3    A    
Cr1   O45   S    
Cr2   O42   S    
C65   C73   S    
C84   C96   S    
Cr4   O48   S    
C53   H53   S    
Cr8   O8    S    
C86   C94   S    
C25   C37   S    
C12   C120  S    
C56   H56   S    
C59   H67   S    
Cr9   O9    S    
C55   H55   S    
C80   C96   S    
C52   C68   S    
C16   C20   S    
C15   C23   S    
C128  H155  S    
C55   C63   S    
C97   O45   A    
C101  O5    A    
C53   C61   S    
C102  O10   A    
C79   H95   S    
C32   H26   S    
C35   H30   S    
C1    O21   A    
C32   C35   S    
C36   C40   S    
C33   H32   S    
C34   H31   S    
C69   H57   S    
Cr6   O50   S    
C57   H61   S    
Cr10  O10   S    
C122  H141  S    
C52   H48   S    
C10   C118  S    
C81   C93   S    
C83   C95   S    
C56   C64   S    
C82   H100  S    
C130  H161  S    
Cr9   O13   S    
C109  C113  S    
C50   C66   S    
C100  O52   A    
C77   H89   S    
C28   H20   S    
C129  H158  S    
C26   H22   S    
C59   C75   S    
C60   H64   S    
C132  H166  S    
C74   H74   S    
C126  H151  S    
C110  C114  S    
C58   H66   S    
C30   C33   S    
C34   C38   S    
C83   H97   S    
C47   O35   A    
C4    O28   A    
C48   O36   A    
Cr5   O25   S    
C90   O38   A    
Cr6   O30   S    
C21   H133  S    
C129  H159  S    
C86   H103  S    
Cr1   O21   S    
Cr2   O18   S    
Cr10  O14   S    
C3    C10   S    
Cr11  O19   S    
C127  H152  S    
Cr12  O20   S    
C31   C39   S    
C32   C40   S    
O58   C130  S    
C55   H79   S    
C79   C80   S    
C16   C24   S    
C125  H147  S    
C27   C28   S    
C28   H24   S    
C111  C115  S    
O56   C127  S    
C13   C113  S    
