data_str_m12_o9_o24_f0_bcu.sym.64
_audit_creation_date              2012-12-11T17:47:32-0500
_audit_creation_method            fapswitch 2.2
_symmetry_space_group_name_H-M    P1
_symmetry_Int_Tables_number       1
_space_group_crystal_system       triclinic
_cell_length_a                    14.86636
_cell_length_b                    14.960309
_cell_length_c                    15.10418
_cell_angle_alpha                 110.519972
_cell_angle_beta                  109.222023
_cell_angle_gamma                 108.616286
_cell_volume                      2587.15712039

loop_
_atom_site_label
_atom_site_type_symbol
_atom_type_description
_atom_site_fract_x
_atom_site_fract_y
_atom_site_fract_z
_atom_type_partial_charge
C1    C     C_R   0.974924 0.250671 0.063433 -0.124196
C2    C     C_R   0.089144 0.804111 0.004815 -0.148472
C3    C     C_R   0.324617 0.787874 0.327942 0.049767
C4    C     C_R   0.704974 0.128823 0.703789 0.067442
C5    C     C_R   0.304314 0.502153 0.937311 0.029201
C6    C     C_R   0.673898 0.500193 0.950135 0.030318
C7    C     C_R   0.946144 0.502106 0.305770 0.064531
C8    C     C_R   0.956776 0.501490 0.677950 0.044172
C9    C     C_R   0.163530 0.038069 0.082135 -0.231505
C10   C     C_R   0.053815 0.134019 0.157165 -0.237602
C11   C     C_R   0.250617 0.104281 0.861239 -0.130204
C12   C     C_R   0.887954 0.924893 0.279606 -0.131861
C13   C     C_R   0.182479 0.088634 0.905846 -0.198842
C14   C     C_R   0.971801 0.987036 0.268521 -0.195583
C15   C     C_R   0.633697 0.267533 0.089648 -0.165699
C16   C     C_R   0.312778 0.656859 0.791854 -0.139985
C17   C     C_R   0.697521 0.353345 0.197852 -0.176960
C18   C     C_R   0.207151 0.598355 0.703137 -0.151662
C19   C     C_R   0.747575 0.334724 0.281078 0.123759
C20   C     C_R   0.147321 0.651915 0.684080 0.133490
C21   C     C_R   0.721168 0.226627 0.255804 -0.192484
C22   C     C_R   0.195136 0.765178 0.753963 -0.220805
C23   C     C_R   0.315683 0.759132 0.225426 -0.131195
C24   C     C_R   0.705724 0.194600 0.795546 -0.134260
C25   C     C_R   0.652465 0.140007 0.147945 -0.146091
C26   C     C_R   0.300766 0.823455 0.843522 -0.153430
C27   C     C_R   0.610696 0.160284 0.063795 0.119012
C28   C     C_R   0.359627 0.768974 0.863068 0.103523
C29   C     C_R   0.848853 0.431058 0.483461 -0.256533
C30   C     C_R   0.024111 0.590299 0.497766 -0.252338
C31   C     C_R   0.945071 0.508723 0.582989 0.072609
C32   C     C_R   0.932376 0.508234 0.397107 0.066246
C33   C     C_R   0.034625 0.587832 0.589949 0.015644
C34   C     C_R   0.842069 0.427842 0.388189 0.030473
C35   C     C_R   0.223039 0.157770 0.017207 0.120025
C36   C     C_R   0.948476 0.981345 0.168301 0.124769
C37   C     C_R   0.400005 0.254959 0.038944 -0.126404
C38   C     C_R   0.755308 0.866638 0.097622 -0.143680
C39   C     C_R   0.220718 0.010690 0.507471 -0.117733
C40   C     C_R   0.916956 0.017226 0.618251 -0.119707
C41   C     C_R   0.306472 0.994002 0.502236 -0.128115
C42   C     C_R   0.812996 0.974346 0.607567 -0.145078
C43   C     C_R   0.333532 0.925613 0.536486 0.104528
C44   C     C_R   0.726078 0.970147 0.528569 0.118832
C45   C     C_R   0.212749 0.409861 0.905760 -0.148015
C46   C     C_R   0.775219 0.592039 0.025449 -0.147284
C47   C     C_R   0.275820 0.876629 0.578894 -0.185979
C48   C     C_R   0.743331 0.004817 0.457446 -0.187285
C49   C     C_R   0.187740 0.890903 0.580502 -0.136348
C50   C     C_R   0.848207 0.051329 0.471252 -0.134093
C51   C     C_R   0.160314 0.957860 0.545010 -0.115791
C52   C     C_R   0.934971 0.057674 0.551582 -0.126249
C53   C     C_R   0.523933 0.978526 0.627587 -0.231790
C54   C     C_R   0.524082 0.865495 0.437571 -0.244874
C55   C     C_R   0.621404 0.012853 0.624516 0.053124
C56   C     C_R   0.425016 0.853081 0.433934 0.069203
C57   C     C_R   0.623440 0.947469 0.531927 0.027903
C58   C     C_R   0.425592 0.910033 0.531770 0.020234
C59   C     C_R   0.359868 0.186446 0.928121 -0.068576
C60   C     C_R   0.779513 0.866210 0.195039 -0.099819
C61   C     C_R   0.037025 0.034609 0.150002 0.018753
C62   C     C_R   0.161926 0.124630 0.068831 0.026332
C63   C     C_R   0.331660 0.241786 0.083241 -0.150560
C64   C     C_R   0.839595 0.922725 0.083588 -0.146205
C65   C     C_R   0.088426 0.981980 0.105245 0.057005
C66   C     C_R   0.098051 0.168035 0.098308 0.057001
C67   C     C_R   0.998877 0.592276 0.300548 -0.170984
C68   C     C_R   0.940299 0.408334 0.685476 -0.141277
C69   C     C_3   0.461347 0.398531 0.874520 -0.146303
C70   C     C_3   0.506804 0.607784 0.977627 -0.172962
C71   C     C_3   0.404676 0.451218 0.821791 -0.163226
C72   C     C_3   0.562530 0.555157 0.029859 -0.155259
C73   C     C_3   0.396949 0.504782 0.923925 0.177966
C74   C     C_3   0.571818 0.501188 0.928560 0.191966
C75   C     C_3   0.452489 0.452905 0.976236 -0.145425
C76   C     C_3   0.517684 0.554498 0.876016 -0.156611
C77   C     C_R   0.302163 0.592405 0.998803 -0.127330
C78   C     C_R   0.684460 0.408136 0.933609 -0.135685
C79   C     C_R   0.915706 0.409752 0.213367 -0.129736
C80   C     C_R   0.021862 0.591821 0.781005 -0.099164
C81   C     C_R   0.220018 0.749479 0.312900 -0.121479
C82   C     C_R   0.793500 0.195275 0.701811 -0.144593
C83   C     C_R   0.069957 0.252807 0.975147 -0.142096
C84   C     C_R   0.998592 0.801439 0.095986 -0.140764
C85   C     C_R   0.054418 0.226098 0.050817 0.060183
C86   C     C_R   0.056346 0.866096 0.067016 0.067220
H1    H     H_    0.938603 0.237685 0.111622 0.091762
H2    H     H_    0.147366 0.832310 0.979737 0.095998
H3    H     H_    0.219616 0.050972 0.775794 0.120975
H4    H     H_    0.907296 0.921227 0.353276 0.130040
H5    H     H_    0.483617 0.320384 0.091004 0.119721
H6    H     H_    0.671802 0.821788 0.031916 0.116706
H7    H     H_    0.603884 0.285365 0.025997 0.105065
H8    H     H_    0.358169 0.614874 0.805140 0.125355
H9    H     H_    0.716476 0.435869 0.215321 0.121029
H10   H     H_    0.171690 0.511217 0.649421 0.113935
H11   H     H_    0.759217 0.210075 0.318279 0.117543
H12   H     H_    0.149100 0.807163 0.741719 0.115846
H13   H     H_    0.635899 0.057845 0.129488 0.111731
H14   H     H_    0.336085 0.910267 0.898358 0.133208
H15   H     H_    0.781905 0.369818 0.479650 0.131980
H16   H     H_    0.095222 0.647800 0.503125 0.135665
H17   H     H_    0.099471 0.020700 0.854951 0.113724
H18   H     H_    0.055271 0.032892 0.334487 0.110935
H19   H     H_    0.422948 0.419081 0.021328 0.127780
H20   H     H_    0.547129 0.596170 0.835249 0.113547
H21   H     H_    0.381039 0.775818 0.206476 0.091593
H22   H     H_    0.660030 0.168973 0.832913 0.081680
H23   H     H_    0.364736 0.293257 0.169823 0.116155
H24   H     H_    0.820389 0.919487 0.006459 0.112701
H25   H     H_    0.092738 0.969280 0.547387 0.100856
H26   H     H_    0.016174 0.094331 0.562278 0.099664
H27   H     H_    0.201406 0.064754 0.482674 0.098817
H28   H     H_    0.984261 0.022319 0.680418 0.105125
H29   H     H_    0.352086 0.034466 0.471891 0.112530
H30   H     H_    0.801263 0.948932 0.663647 0.110878
H31   H     H_    0.296840 0.825068 0.607233 0.130156
H32   H     H_    0.677865 0.004004 0.397394 0.114779
H33   H     H_    0.140338 0.850229 0.609053 0.112757
H34   H     H_    0.862555 0.084128 0.420740 0.126943
H35   H     H_    0.520614 0.021439 0.699664 0.121551
H36   H     H_    0.524756 0.817928 0.364980 0.125329
H37   H     H_    0.213972 0.006822 0.060164 0.130763
H38   H     H_    0.015392 0.173204 0.193418 0.126215
H39   H     H_    0.337065 0.409167 0.736908 0.108288
H40   H     H_    0.628274 0.597312 0.115755 0.111775
H41   H     H_    0.443202 0.312870 0.829248 0.102591
H42   H     H_    0.522412 0.692766 0.020756 0.110127
H43   H     H_    0.185863 0.326014 0.848738 0.105527
H44   H     H_    0.794066 0.676581 0.060011 0.126439
H45   H     H_    0.021310 0.675968 0.353150 0.113638
H46   H     H_    0.895756 0.324117 0.619751 0.103512
H47   H     H_    0.355965 0.676812 0.027110 0.093704
H48   H     H_    0.620593 0.323390 0.882796 0.089693
H49   H     H_    0.866164 0.325428 0.187714 0.116262
H50   H     H_    0.048651 0.676389 0.803817 0.107462
H51   H     H_    0.194266 0.747915 0.370885 0.123304
H52   H     H_    0.825462 0.173034 0.648735 0.132782
H53   H     H_    0.124802 0.245919 0.944845 0.121523
H54   H     H_    0.979757 0.825485 0.159897 0.125563
H55   H     H_    0.413249 0.196360 0.894063 0.087360
H56   H     H_    0.714581 0.819930 0.204784 0.107578
N1    N     N_R   0.947560 0.293820 0.002910 -0.041832
N2    N     N_R   0.052440 0.706180 0.997090 -0.040553
N3    N     N_R   0.208960 0.706170 0.152110 -0.040286
N4    N     N_R   0.791040 0.293830 0.847890 -0.038352
N5    N     N_R   0.154330 0.443160 0.946140 -0.039276
N6    N     N_R   0.845670 0.556840 0.053860 -0.039786
N7    N     N_R   0.002190 0.556820 0.208880 -0.038864
N8    N     N_R   0.997810 0.443180 0.791120 -0.040362
N9    N     N_R   0.210550 0.556810 0.002910 -0.037590
N10   N     N_R   0.789450 0.443190 0.997090 -0.037569
N11   N     N_R   0.945970 0.443180 0.152110 -0.039874
N12   N     N_R   0.054030 0.556820 0.847890 -0.040376
N13   N     N_R   0.151530 0.706170 0.208880 -0.043344
N14   N     N_R   0.848470 0.293830 0.791120 -0.041731
N15   N     N_R   0.004980 0.293810 0.946140 -0.040883
N16   N     N_R   0.995020 0.706190 0.053860 -0.041786
Ni1   Ni    Ni4+2 0.869690 0.369690 0.000000 0.210643
Ni2   Ni    Ni4+2 0.130310 0.630310 0.000000 0.217441
Ni3   Ni    Ni4+2 0.001390 0.369680 0.869810 0.215452
Ni4   Ni    Ni4+2 0.998610 0.630320 0.130190 0.213688
N17   N     N_3   0.547241 0.071949 0.952796 -0.226182
H57   H     H_    0.518704 0.099408 0.900430 0.086326
H58   H     H_    0.599946 0.047255 0.933658 0.087421
N18   N     N_3   0.466617 0.826224 0.955372 -0.240558
H59   H     H_    0.462710 0.866139 0.025203 0.087233
H60   H     H_    0.518021 0.885373 0.947261 0.103793

loop_
_geom_bond_atom_site_label_1
_geom_bond_atom_site_label_2
_ccdc_geom_bond_type
C16   C28   A    
C39   C51   A    
C1    H1    S    
C22   H12   S    
C67   N7    A    
C2    N2    A    
C3    C23   A    
N17   H57   S    
C77   N9    A    
C66   C85   S    
C83   H53   S    
C78   N10   A    
C65   C86   S    
C39   C41   A    
C81   H51   S    
C23   N3    A    
C42   C44   A    
C50   H34   S    
C12   H4    S    
N17   H58   S    
C84   C86   A    
C13   C35   A    
C10   H38   S    
C14   C36   A    
C71   C76   S    
C4    C24   A    
C6    C78   A    
C52   H26   S    
C38   H6    S    
C18   H10   S    
C7    C67   A    
C68   H46   S    
C2    C86   A    
C69   C71   S    
N7    N11   A    
C22   C26   A    
C43   C58   S    
C27   N17   S    
C76   H20   S    
C14   H18   S    
C25   H13   S    
C40   H28   S    
C46   N6    A    
C39   H27   S    
C3    C81   A    
C50   C52   A    
C31   C33   A    
N1    N15   A    
C24   H22   S    
C13   H17   S    
C28   N18   S    
C82   N14   A    
C10   C66   A    
C54   H36   S    
N10   Ni1   S    
N18   H60   S    
C41   C43   A    
C77   H47   S    
C41   H29   S    
C72   C75   S    
C11   C59   A    
C37   C63   A    
C6    C74   S    
C38   C64   A    
C53   C55   A    
N13   Ni4   S    
C1    C85   A    
C15   C27   A    
C54   C56   A    
C62   C66   A    
C9    C62   A    
C72   C74   S    
N5    Ni3   S    
C71   C73   S    
N3    Ni2   S    
C84   N16   A    
C48   H32   S    
N4    Ni1   S    
C49   C51   A    
C40   C52   A    
C5    C45   A    
C29   C34   A    
C72   H40   S    
C32   C34   A    
N11   Ni1   S    
N5    N9    A    
N12   Ni2   S    
C1    N1    A    
C79   N11   A    
C21   H11   S    
C3    C56   S    
C11   H3    S    
C64   H24   S    
C83   N15   A    
C44   C57   S    
C69   H41   S    
C23   H21   S    
C30   H16   S    
C70   C73   S    
C29   H15   S    
C69   C74   S    
C16   C18   A    
C2    H2    S    
C48   C50   A    
C78   H48   S    
C59   H55   S    
C37   C59   A    
C74   C76   S    
C38   C60   A    
C20   C33   S    
C9    H37   S    
C12   C60   A    
C42   H30   S    
C83   C85   A    
C12   C14   A    
N14   Ni3   S    
C75   H19   S    
C55   C57   A    
C4    C55   S    
C70   C76   S    
N18   H59   S    
C10   C61   A    
N2    Ni2   S    
C15   H7    S    
C73   C75   S    
C5    C77   A    
C36   C61   S    
N15   Ni3   S    
C7    C79   A    
C70   H42   S    
C15   C17   A    
N8    Ni3   S    
C21   C25   A    
C51   H25   S    
C7    C32   S    
C6    C46   A    
C30   C33   A    
C19   C21   A    
C45   N5    A    
C8    C31   S    
C16   H8    S    
C67   H45   S    
C17   H9    S    
N6    N10   A    
C20   C22   A    
C19   C34   S    
C80   H50   S    
C46   H44   S    
C70   C72   S    
C53   C58   A    
C80   N12   A    
C47   C49   A    
C79   H49   S    
C26   C28   A    
C81   N13   A    
N6    Ni4   S    
N9    Ni2   S    
C8    C68   A    
C29   C31   A    
C24   N4    A    
C30   C32   A    
C11   C13   A    
C45   H43   S    
C49   H33   S    
C43   C47   A    
C60   H56   S    
C40   C42   A    
C17   C19   A    
C56   C58   A    
C69   C75   S    
C35   C62   S    
C18   C20   A    
N1    Ni1   S    
C5    C73   S    
C9    C65   A    
C68   N8    A    
N16   Ni4   S    
C53   H35   S    
N3    N13   A    
C61   C65   A    
C47   H31   S    
C4    C82   A    
C84   H54   S    
C82   H52   S    
N8    N12   A    
C8    C80   A    
C71   H39   S    
C35   C63   A    
N7    Ni4   S    
N4    N14   A    
C36   C64   A    
N2    N16   A    
C54   C57   A    
C44   C48   A    
C37   H5    S    
C26   H14   S    
C63   H23   S    
C25   C27   A    
