data_str_m3_o40_o41_f0_fof.sym.74
_audit_creation_date              2012-12-10T16:38:10-0500
_audit_creation_method            fapswitch 2.2
_symmetry_space_group_name_H-M    P1
_symmetry_Int_Tables_number       1
_space_group_crystal_system       triclinic
_cell_length_a                    28.066326
_cell_length_b                    18.436804
_cell_length_c                    16.776996
_cell_angle_alpha                 89.393998
_cell_angle_beta                  61.19265
_cell_angle_gamma                 89.755792
_cell_volume                      7606.52690723

loop_
_atom_site_label
_atom_site_type_symbol
_atom_type_description
_atom_site_fract_x
_atom_site_fract_y
_atom_site_fract_z
_atom_type_partial_charge
C1    C     C_R   0.702118 0.268350 0.676649 0.869393
C2    C     C_R   0.300256 0.736289 0.322044 0.949362
C3    C     C_R   0.300871 0.261990 0.322575 0.874377
C4    C     C_R   0.699092 0.738250 0.677824 0.921120
C5    C     C_R   0.202118 0.768349 0.676649 0.869405
C6    C     C_R   0.800256 0.236289 0.322044 0.949383
C7    C     C_R   0.800871 0.761990 0.322575 0.874381
C8    C     C_R   0.199092 0.238250 0.677824 0.921104
C9    C     C_R   0.886544 0.502544 0.542363 -0.043151
C10   C     C_R   0.087111 0.506791 0.541484 -0.044296
C11   C     C_R   0.386555 0.002547 0.542337 -0.043159
C12   C     C_R   0.587117 0.006796 0.541470 -0.044302
C13   C     C_R   0.107734 0.389419 0.468260 0.522567
C14   C     C_R   0.871933 0.629071 0.584283 0.487608
C15   C     C_R   0.889893 0.371630 0.544049 0.524778
C16   C     C_R   0.068561 0.629021 0.602790 0.493477
C17   C     C_R   0.607751 0.889432 0.468226 0.522561
C18   C     C_R   0.371937 0.129070 0.584275 0.487601
C19   C     C_R   0.389914 0.871633 0.543999 0.524788
C20   C     C_R   0.568562 0.129021 0.602792 0.493483
C21   C     C_R   0.716323 0.256246 0.959244 -0.070064
C22   C     C_R   0.282340 0.737762 0.042514 -0.054390
C23   C     C_R   0.273392 0.273815 0.056263 -0.056053
C24   C     C_R   0.713612 0.746826 0.962795 -0.051929
C25   C     C_R   0.216323 0.756247 0.959244 -0.070063
C26   C     C_R   0.782340 0.237762 0.042513 -0.054399
C27   C     C_R   0.773399 0.773807 0.056258 -0.056030
C28   C     C_R   0.213599 0.246841 0.962809 -0.051946
C29   C     C_R   0.765347 0.216681 0.913790 -0.057071
C30   C     C_R   0.233067 0.777061 0.087596 -0.002491
C31   C     C_R   0.235647 0.215674 0.086020 -0.076653
C32   C     C_R   0.752362 0.803001 0.932375 -0.004248
C33   C     C_R   0.265347 0.716681 0.913791 -0.057067
C34   C     C_R   0.733066 0.277058 0.087596 -0.002508
C35   C     C_R   0.735664 0.715653 0.086001 -0.076656
C36   C     C_R   0.252358 0.303004 0.932378 -0.004236
C37   C     C_R   0.800964 0.213434 0.952438 0.017638
C38   C     C_R   0.197384 0.779754 0.049213 0.017306
C39   C     C_R   0.205236 0.203303 0.039237 -0.045253
C40   C     C_R   0.776607 0.822335 0.987470 -0.047780
C41   C     C_R   0.300963 0.713434 0.952439 0.017632
C42   C     C_R   0.697383 0.279750 0.049214 0.017392
C43   C     C_R   0.705256 0.703278 0.039212 -0.045213
C44   C     C_R   0.276606 0.322338 0.987469 -0.047772
C45   C     C_R   0.637009 0.311698 0.958014 -0.019165
C46   C     C_R   0.364482 0.689017 0.040599 -0.015330
C47   C     C_R   0.337661 0.350171 0.078588 -0.146794
C48   C     C_R   0.640194 0.681911 0.953459 -0.148774
C49   C     C_R   0.137008 0.811697 0.958015 -0.019235
C50   C     C_R   0.864482 0.189019 0.040598 -0.015321
C51   C     C_R   0.837661 0.850170 0.078591 -0.146798
C52   C     C_R   0.140177 0.181935 0.953476 -0.148781
C53   C     C_R   0.617552 0.346507 0.901777 -0.179904
C54   C     C_R   0.391246 0.666418 0.091233 -0.161221
C55   C     C_R   0.376909 0.354162 0.110150 -0.216236
C56   C     C_R   0.610994 0.664033 0.905794 -0.204192
C57   C     C_R   0.117551 0.846505 0.901778 -0.179919
C58   C     C_R   0.891246 0.166419 0.091233 -0.161222
C59   C     C_R   0.876909 0.854162 0.110152 -0.216250
C60   C     C_R   0.110984 0.164045 0.905802 -0.204197
C61   C     C_R   0.647219 0.340427 0.808344 0.285540
C62   C     C_R   0.375837 0.695999 0.176223 0.258766
C63   C     C_R   0.373171 0.307093 0.178508 0.331767
C64   C     C_R   0.623556 0.698995 0.824172 0.308984
C65   C     C_R   0.147217 0.840425 0.808345 0.285552
C66   C     C_R   0.875837 0.196001 0.176222 0.258768
C67   C     C_R   0.873173 0.807094 0.178511 0.331752
C68   C     C_R   0.123552 0.198998 0.824173 0.308998
C69   C     C_R   0.681145 0.281225 0.773030 -0.177085
C70   C     C_R   0.326526 0.732668 0.221567 -0.145133
C71   C     C_R   0.327373 0.264809 0.222325 -0.191445
C72   C     C_R   0.671951 0.737647 0.778985 -0.136452
C73   C     C_R   0.181144 0.781223 0.773031 -0.177090
C74   C     C_R   0.826526 0.232669 0.221567 -0.145142
C75   C     C_R   0.827376 0.764808 0.222325 -0.191456
C76   C     C_R   0.171948 0.237648 0.778987 -0.136479
C77   C     C_R   0.701885 0.245677 0.826905 -0.154043
C78   C     C_R   0.298657 0.755297 0.172537 -0.041260
C79   C     C_R   0.299664 0.243331 0.173594 -0.130043
C80   C     C_R   0.698297 0.763217 0.829571 -0.031208
C81   C     C_R   0.201883 0.745675 0.826906 -0.154041
C82   C     C_R   0.798656 0.255297 0.172536 -0.041276
C83   C     C_R   0.799669 0.743326 0.173592 -0.130024
C84   C     C_R   0.198292 0.263221 0.829576 -0.031205
C85   C     C_R   0.690210 0.130584 0.540864 0.892098
C86   C     C_R   0.299859 0.871431 0.493122 0.912801
C87   C     C_R   0.294445 0.131414 0.506137 0.933825
C88   C     C_R   0.694569 0.872784 0.523632 0.901543
C89   C     C_R   0.190210 0.630584 0.540862 0.892205
C90   C     C_R   0.799851 0.371428 0.493143 0.912816
C91   C     C_R   0.794444 0.631415 0.506139 0.933821
C92   C     C_R   0.194569 0.372784 0.523629 0.901507
C93   C     C_R   0.685575 0.271955 0.914445 -0.050132
C94   C     C_R   0.314785 0.726517 0.085743 -0.093258
C95   C     C_R   0.304349 0.288068 0.101375 -0.023286
C96   C     C_R   0.684539 0.730368 0.914313 -0.058855
C97   C     C_R   0.185573 0.771953 0.914447 -0.050096
C98   C     C_R   0.814785 0.226518 0.085743 -0.093239
C99   C     C_R   0.804352 0.788063 0.101374 -0.023276
C100  C     C_R   0.184526 0.230383 0.914326 -0.058865
C101  C     C_R   0.610737 0.312743 0.054604 0.404909
C102  C     C_R   0.388701 0.684279 0.944383 0.430211
C103  C     C_R   0.327259 0.407001 0.030999 0.409349
C104  C     C_R   0.626921 0.653556 0.040555 0.433598
C105  C     C_R   0.110742 0.812756 0.054604 0.404845
C106  C     C_R   0.888702 0.184281 0.944382 0.430205
C107  C     C_R   0.827256 0.907000 0.031006 0.409354
C108  C     C_R   0.126893 0.153595 0.040581 0.433582
C109  C     C_R   0.641071 0.295739 0.100201 0.320567
C110  C     C_R   0.357327 0.699143 0.900408 0.309135
C111  C     C_R   0.296051 0.393058 0.987701 0.433899
C112  C     C_R   0.668287 0.646022 0.062261 0.438836
C113  C     C_R   0.141074 0.795751 0.100198 0.320698
C114  C     C_R   0.857328 0.199143 0.900407 0.309135
C115  C     C_R   0.796048 0.893057 0.987709 0.433895
C116  C     C_R   0.168252 0.146062 0.062305 0.438808
C117  C     C_R   0.738254 0.185705 0.799066 0.430371
C118  C     C_R   0.259858 0.812252 0.201565 0.407547
C119  C     C_R   0.264167 0.182946 0.199299 0.431851
C120  C     C_R   0.736194 0.821442 0.800801 0.417974
C121  C     C_R   0.238253 0.685704 0.799067 0.430347
C122  C     C_R   0.759853 0.312247 0.201568 0.407488
C123  C     C_R   0.764181 0.682932 0.199287 0.431860
C124  C     C_R   0.236194 0.321440 0.800798 0.417997
C125  C     C_R   0.772211 0.174427 0.838392 0.440948
C126  C     C_R   0.226709 0.822530 0.159822 0.313577
C127  C     C_R   0.227630 0.176040 0.165292 0.407367
C128  C     C_R   0.766635 0.835608 0.846548 0.280358
C129  C     C_R   0.272210 0.674428 0.838393 0.440935
C130  C     C_R   0.726706 0.322525 0.159823 0.313669
C131  C     C_R   0.727653 0.676006 0.165263 0.407330
C132  C     C_R   0.266637 0.335601 0.846544 0.280354
C133  C     C_R   0.072292 0.103118 0.935732 0.940776
C134  C     C_R   0.922514 0.904132 0.070002 0.934135
C135  C     C_R   0.929747 0.105120 0.061696 0.942009
C136  C     C_R   0.073561 0.898844 0.935510 0.997566
C137  C     C_R   0.572297 0.603113 0.935728 0.940779
C138  C     C_R   0.422514 0.404132 0.070001 0.934124
C139  C     C_R   0.429747 0.605120 0.061696 0.942020
C140  C     C_R   0.573561 0.398844 0.935510 0.997582
C141  C     C_R   0.522053 0.133256 0.590008 -0.192907
C142  C     C_R   0.444920 0.873446 0.521359 -0.105395
C143  C     C_R   0.423328 0.132964 0.581575 -0.190477
C144  C     C_R   0.553370 0.881578 0.487622 -0.102120
C145  C     C_R   0.022051 0.633254 0.590011 -0.192897
C146  C     C_R   0.944898 0.373437 0.521419 -0.105395
C147  C     C_R   0.923324 0.632963 0.581583 -0.190470
C148  C     C_R   0.053350 0.381565 0.487675 -0.102134
C149  C     C_R   0.493748 0.199044 0.598036 0.333186
C150  C     C_R   0.477682 0.810521 0.496179 0.370292
C151  C     C_R   0.445228 0.199006 0.592298 0.339209
C152  C     C_R   0.532485 0.815174 0.475671 0.350974
C153  C     C_R   0.993748 0.699043 0.598034 0.333185
C154  C     C_R   0.977656 0.310508 0.496258 0.370313
C155  C     C_R   0.945226 0.699006 0.592298 0.339209
C156  C     C_R   0.032459 0.315159 0.475750 0.350989
C157  C     C_R   0.454850 0.069302 0.563133 -0.016744
C158  C     C_R   0.518972 0.942630 0.519459 -0.055454
C159  C     C_R   0.504711 0.069945 0.564691 -0.020510
C160  C     C_R   0.466788 0.940089 0.528075 -0.058254
C161  C     C_R   0.954842 0.569298 0.563150 -0.016744
C162  C     C_R   0.018956 0.442621 0.519501 -0.055459
C163  C     C_R   0.004704 0.569941 0.564706 -0.020508
C164  C     C_R   0.966771 0.440081 0.528120 -0.058258
C165  C     C_R   0.935620 0.503913 0.546206 0.063837
C166  C     C_R   0.037091 0.506772 0.541196 0.066145
C167  C     C_R   0.435632 0.003918 0.546176 0.063835
C168  C     C_R   0.537101 0.006778 0.541172 0.066149
C169  C     C_R   0.865144 0.435958 0.533524 -0.150609
C170  C     C_R   0.103722 0.568431 0.570160 -0.011976
C171  C     C_R   0.121128 0.445212 0.511877 -0.161763
C172  C     C_R   0.857956 0.567087 0.550580 -0.031637
C173  C     C_R   0.365158 0.935961 0.533490 -0.150620
C174  C     C_R   0.603724 0.068433 0.570160 -0.011943
C175  C     C_R   0.621136 0.945218 0.511862 -0.161786
C176  C     C_R   0.357963 0.067088 0.550566 -0.031643
C177  C     C_R   0.819153 0.436355 0.518278 -0.200543
C178  C     C_R   0.155030 0.566558 0.567330 -0.220485
C179  C     C_R   0.165050 0.440334 0.532073 -0.173729
C180  C     C_R   0.813872 0.565887 0.530947 -0.152138
C181  C     C_R   0.319164 0.936357 0.518253 -0.200538
C182  C     C_R   0.655029 0.066559 0.567339 -0.220503
C183  C     C_R   0.665049 0.940335 0.532078 -0.173719
C184  C     C_R   0.313877 0.065887 0.530937 -0.152117
C185  C     C_R   0.791667 0.500617 0.524866 0.354742
C186  C     C_R   0.178502 0.500251 0.567403 0.372345
C187  C     C_R   0.291674 0.000617 0.524851 0.354713
C188  C     C_R   0.678496 0.000248 0.567424 0.372484
O1    O     O_R   0.746490 0.236330 0.638080 -0.612268
O2    O     O_R   0.253510 0.763670 0.361920 -0.606325
O3    O     O_R   0.253510 0.236330 0.361920 -0.579011
O4    O     O_R   0.746490 0.763670 0.638080 -0.547711
O5    O     O_R   0.246490 0.736330 0.638080 -0.612268
O6    O     O_R   0.753510 0.263670 0.361920 -0.606379
O7    O     O_R   0.753510 0.736330 0.361920 -0.579001
O8    O     O_R   0.246490 0.263670 0.638080 -0.547715
O9    O     O_R   0.674170 0.186160 0.516270 -0.569711
O10   O     O_R   0.325830 0.813840 0.483730 -0.585633
O11   O     O_R   0.325830 0.186160 0.483730 -0.571837
O12   O     O_R   0.674170 0.813840 0.516270 -0.587331
O13   O     O_R   0.174170 0.686160 0.516270 -0.569748
O14   O     O_R   0.825830 0.313840 0.483730 -0.585618
O15   O     O_R   0.825830 0.686160 0.483730 -0.571827
O16   O     O_R   0.174170 0.313840 0.516270 -0.587330
O17   O     O_R   0.739960 0.127620 0.525000 -0.597643
O18   O     O_R   0.260040 0.872380 0.475000 -0.579972
O19   O     O_R   0.260040 0.127620 0.475000 -0.602969
O20   O     O_R   0.739960 0.872380 0.525000 -0.541306
O21   O     O_R   0.239960 0.627620 0.525000 -0.597502
O22   O     O_R   0.760040 0.372380 0.475000 -0.579980
O23   O     O_R   0.760040 0.627620 0.475000 -0.602968
O24   O     O_R   0.239960 0.372380 0.525000 -0.541289
O25   O     O_R   0.680700 0.294870 0.629350 -0.535435
O26   O     O_R   0.319300 0.705130 0.370650 -0.556509
O27   O     O_R   0.319300 0.294870 0.370650 -0.572009
O28   O     O_R   0.680700 0.705130 0.629350 -0.577441
O29   O     O_R   0.180700 0.794870 0.629350 -0.535433
O30   O     O_R   0.819300 0.205130 0.370650 -0.556495
O31   O     O_R   0.819300 0.794870 0.370650 -0.572021
O32   O     O_R   0.180700 0.205130 0.629350 -0.577426
O33   O     O_R   0.062020 0.072840 0.007170 -0.600043
O34   O     O_R   0.937980 0.927160 0.992830 -0.592831
O35   O     O_R   0.937980 0.072840 0.992830 -0.570869
O36   O     O_R   0.062020 0.927160 0.007170 -0.576827
O37   O     O_R   0.562020 0.572840 0.007170 -0.600070
O38   O     O_R   0.437980 0.427160 0.992830 -0.592835
O39   O     O_R   0.437980 0.572840 0.992830 -0.570877
O40   O     O_R   0.562020 0.427160 0.007170 -0.576698
O41   O     O_R   0.947860 0.073950 0.109290 -0.583289
O42   O     O_R   0.052140 0.926050 0.890710 -0.573510
O43   O     O_R   0.052140 0.073950 0.890710 -0.540661
O44   O     O_R   0.947860 0.926050 0.109290 -0.562619
O45   O     O_R   0.447860 0.573950 0.109290 -0.583291
O46   O     O_R   0.552140 0.426050 0.890710 -0.573537
O47   O     O_R   0.552140 0.573950 0.890710 -0.540668
O48   O     O_R   0.447860 0.426050 0.109290 -0.562586
Zn1   Zn    Zn3+2 0.792340 0.208750 0.507670 1.203985
Zn2   Zn    Zn3+2 0.207660 0.791250 0.492330 1.176462
Zn3   Zn    Zn3+2 0.207660 0.208750 0.492330 1.209758
Zn4   Zn    Zn3+2 0.792340 0.791250 0.507670 1.215215
Zn5   Zn    Zn3+2 0.292340 0.708750 0.507670 1.204034
Zn6   Zn    Zn3+2 0.707660 0.291250 0.492330 1.176416
Zn7   Zn    Zn3+2 0.707660 0.708750 0.492330 1.209742
Zn8   Zn    Zn3+2 0.292340 0.291250 0.507670 1.215208
Zn9   Zn    Zn3+2 0.505960 0.500000 0.080520 1.182573
Zn10  Zn    Zn3+2 0.494040 0.500000 0.919480 1.184357
Zn11  Zn    Zn3+2 0.005960 0.000000 0.080520 1.182457
Zn12  Zn    Zn3+2 0.994040 0.000000 0.919480 1.184361
Cl1   Cl    Cl    0.072017 0.234886 0.445732 -0.346422
Cl2   Cl    Cl    0.917466 0.783606 0.584167 -0.389582
Cl3   Cl    Cl    0.952446 0.226952 0.480598 -0.334433
Cl4   Cl    Cl    0.022667 0.783854 0.600387 -0.419011
Cl5   Cl    Cl    0.572051 0.734907 0.445618 -0.346480
Cl6   Cl    Cl    0.417465 0.283606 0.584172 -0.389589
Cl7   Cl    Cl    0.452478 0.726970 0.480494 -0.334457
Cl8   Cl    Cl    0.522664 0.283855 0.600400 -0.419023
O49   O     O_3   0.741302 0.499795 0.529384 -0.659894
H1    H     H_    0.748420 0.499135 0.465379 0.370255
O50   O     O_3   0.216099 0.493972 0.598135 -0.675811
H2    H     H_    0.209076 0.532737 0.642971 0.357836
O51   O     O_3   0.241308 0.999794 0.529378 -0.659901
H3    H     H_    0.248421 0.999133 0.465377 0.370249
O52   O     O_3   0.716074 0.993954 0.598194 -0.675873
H4    H     H_    0.709121 0.032794 0.642911 0.357897
O53   O     O_3   0.147318 0.349779 0.397821 -0.687232
H5    H     H_    0.182430 0.375994 0.373744 0.313062
O54   O     O_3   0.831523 0.678879 0.632188 -0.728086
H6    H     H_    0.835595 0.695124 0.684752 0.350425
O55   O     O_3   0.859387 0.313326 0.595574 -0.655620
H7    H     H_    0.821448 0.329972 0.634269 0.329951
O56   O     O_3   0.076985 0.677984 0.656494 -0.726242
H8    H     H_    0.040930 0.693195 0.705818 0.356561
O57   O     O_3   0.647343 0.849795 0.397791 -0.687248
H9    H     H_    0.682454 0.876011 0.373729 0.313050
O58   O     O_3   0.331526 0.178876 0.632185 -0.728076
H10   H     H_    0.335599 0.195118 0.684751 0.350416
O59   O     O_3   0.359414 0.813327 0.595532 -0.655608
H11   H     H_    0.321475 0.829971 0.634238 0.329967
O60   O     O_3   0.576983 0.177981 0.656501 -0.726231
H12   H     H_    0.540927 0.193190 0.705824 0.356563
Cl9   Cl    Cl    0.651630 0.415507 0.736464 -0.498777
Cl10  Cl    Cl    0.421967 0.695094 0.220772 -0.503838
Cl11  Cl    Cl    0.424368 0.298707 0.211404 -0.496622
Cl12  Cl    Cl    0.577086 0.698532 0.780503 -0.483496
Cl13  Cl    Cl    0.151630 0.915505 0.736465 -0.498765
Cl14  Cl    Cl    0.921967 0.195094 0.220773 -0.503854
Cl15  Cl    Cl    0.924369 0.798710 0.211406 -0.496484
Cl16  Cl    Cl    0.077086 0.198528 0.780496 -0.483498
O61   O     O_3   0.554936 0.320289 0.102367 -0.683238
H13   H     H_    0.543990 0.336029 0.165032 0.404596
O62   O     O_3   0.444553 0.678027 0.894199 -0.685905
H14   H     H_    0.454221 0.658193 0.833666 0.400106
O63   O     O_3   0.340020 0.478459 0.036094 -0.692161
H15   H     H_    0.340615 0.485083 0.094151 0.307749
O64   O     O_3   0.574633 0.654010 0.112700 -0.659142
H16   H     H_    0.551474 0.683408 0.094941 0.357882
O65   O     O_3   0.054942 0.820302 0.102385 -0.683046
H17   H     H_    0.044028 0.836220 0.164986 0.404472
O66   O     O_3   0.944554 0.178029 0.894199 -0.685918
H18   H     H_    0.954223 0.158200 0.833663 0.400113
O67   O     O_3   0.840015 0.978460 0.036105 -0.692159
H19   H     H_    0.840612 0.985082 0.094161 0.307747
O68   O     O_3   0.074602 0.154026 0.112710 -0.659119
H20   H     H_    0.051444 0.183417 0.094942 0.357874
Cl17  Cl    Cl    0.606194 0.276006 0.218632 -0.497864
Cl18  Cl    Cl    0.391773 0.723829 0.783258 -0.480200
Cl19  Cl    Cl    0.266305 0.468762 0.963077 -0.460532
Cl20  Cl    Cl    0.692833 0.556800 0.054556 -0.472935
Cl21  Cl    Cl    0.106188 0.776018 0.218627 -0.497672
Cl22  Cl    Cl    0.891773 0.223827 0.783256 -0.480197
Cl23  Cl    Cl    0.766296 0.968761 0.963096 -0.460541
Cl24  Cl    Cl    0.192755 0.056833 0.054708 -0.472849
O69   O     O_3   0.736876 0.132288 0.743145 -0.678677
H21   H     H_    0.700749 0.133869 0.746016 0.312873
O70   O     O_3   0.262061 0.864400 0.258369 -0.705064
H22   H     H_    0.226379 0.888801 0.291068 0.388818
O71   O     O_3   0.264295 0.128670 0.256701 -0.666265
H23   H     H_    0.300098 0.128560 0.254970 0.332062
O72   O     O_3   0.738994 0.868485 0.733904 -0.687588
H24   H     H_    0.757621 0.913826 0.734416 0.401898
O73   O     O_3   0.236878 0.632288 0.743144 -0.678647
H25   H     H_    0.200750 0.633868 0.746012 0.312871
O74   O     O_3   0.762049 0.364398 0.258374 -0.704956
H26   H     H_    0.726342 0.388740 0.291137 0.388767
O75   O     O_3   0.764313 0.628660 0.256692 -0.666253
H27   H     H_    0.800115 0.628561 0.254968 0.332064
O76   O     O_3   0.238997 0.368482 0.733900 -0.687653
H28   H     H_    0.257640 0.413813 0.734388 0.401901
Cl25  Cl    Cl    0.813975 0.096358 0.803822 -0.340126
Cl26  Cl    Cl    0.189209 0.904375 0.180391 -0.421742
Cl27  Cl    Cl    0.167546 0.127313 0.237599 -0.331640
Cl28  Cl    Cl    0.829965 0.880503 0.783684 -0.421720
Cl29  Cl    Cl    0.313976 0.596361 0.803818 -0.340135
Cl30  Cl    Cl    0.689209 0.404374 0.180391 -0.421590
Cl31  Cl    Cl    0.667592 0.627207 0.237523 -0.331604
Cl32  Cl    Cl    0.329971 0.380486 0.783678 -0.421745

loop_
_geom_bond_atom_site_label_1
_geom_bond_atom_site_label_2
_ccdc_geom_bond_type
C118  O70   S    
C85   C182  S    
C9    C169  A    
O62   H14   S    
C34   C42   A    
C20   O60   S    
O1    Zn1   S    
O14   Zn1   S    
C181  C187  A    
C61   C69   A    
O67   H19   S    
C149  Cl8   S    
C27   C99   A    
C170  C178  A    
C175  C183  A    
C42   C109  A    
C24   C96   A    
C3    O27   A    
O56   H8    S    
C62   C70   A    
C65   Cl13  S    
C138  O38   A    
C5    O29   A    
C137  O47   A    
C129  Cl29  S    
O45   Zn9   S    
O28   Zn7   S    
C143  C151  A    
C90   C177  S    
C11   C167  A    
C82   C98   A    
C76   C84   A    
C88   O20   A    
O16   Zn3   S    
C73   C81   A    
C161  C163  A    
O11   Zn8   S    
C132  Cl32  S    
C162  C164  A    
O9    Zn6   S    
C140  O40   A    
O74   H26   S    
C84   C100  A    
O52   H4    S    
O22   Zn6   S    
C57   C65   A    
C156  Cl1   S    
C37   C114  A    
O33   Zn11  S    
C27   C35   A    
C10   C171  A    
C21   C29   A    
C187  O51   S    
C113  Cl21  S    
C119  O71   S    
C81   C121  A    
C61   Cl9   S    
C115  Cl23  S    
C24   C32   A    
O36   Zn11  S    
O68   H20   S    
C146  C154  A    
C112  Cl20  S    
O18   Zn2   S    
C86   O10   A    
C63   C71   A    
C2    O26   A    
C36   C44   A    
C6    O6    A    
C16   O56   S    
C12   C174  A    
C176  C184  A    
C48   C96   A    
C2    O2    A    
C17   O57   S    
C135  O35   A    
C148  C162  A    
C183  C188  A    
O39   Zn10  S    
C108  C116  A    
C21   C93   A    
C78   C94   A    
C9    C165  A    
C23   C95   A    
C49   C97   A    
C21   C42   A    
C22   C41   A    
C51   C107  A    
O73   H25   S    
C24   C43   A    
C82   C122  A    
C161  C165  A    
C17   C175  A    
C102  O62   S    
C90   O14   A    
C18   C176  A    
C4    O28   A    
C29   C125  A    
C69   C77   A    
C31   C127  A    
C45   C93   A    
C174  C182  A    
C71   C79   A    
C85   O17   A    
C179  C186  A    
C117  O69   S    
C104  O64   S    
C111  Cl19  S    
C30   C38   A    
C11   C176  A    
C17   C144  A    
C103  C111  A    
C18   C143  A    
C78   C118  A    
C149  C151  A    
O51   H3    S    
O4    Zn4   S    
C66   C74   A    
C109  Cl17  S    
C8    C76   S    
C49   C57   A    
C124  C132  A    
O49   H1    S    
C137  O37   A    
C52   C60   A    
C59   C67   A    
C53   C61   A    
C141  C159  A    
C20   C174  A    
C134  O34   A    
C55   C63   A    
C139  O45   A    
C86   C181  S    
C56   C64   A    
C134  O44   A    
C35   C43   A    
C186  O50   S    
C122  O74   S    
C45   C53   A    
C6    O30   A    
O59   H11   S    
C22   C94   A    
C171  C179  A    
C169  C177  A    
C50   C98   A    
O3    Zn3   S    
C66   Cl14  S    
C91   O23   A    
O21   Zn5   S    
C104  C112  A    
C89   O21   A    
C145  C163  A    
C146  C164  A    
C14   C147  A    
C52   C100  A    
C16   C145  A    
C178  C186  A    
C108  O68   S    
O63   H15   S    
C25   C38   A    
C64   Cl12  S    
C54   C139  S    
C46   C94   A    
C27   C40   A    
C10   C166  A    
C107  C115  A    
C91   C180  S    
O61   H13   S    
C182  C188  A    
C89   C178  S    
C60   C68   A    
C25   C97   A    
C128  Cl28  S    
C92   O24   A    
C67   C75   A    
C147  C155  A    
C14   O54   S    
C121  O73   S    
O7    Zn7   S    
C22   C30   A    
C114  Cl22  S    
O5    Zn5   S    
C20   C141  A    
C15   C146  A    
O54   H6    S    
C58   C135  S    
C68   C76   A    
C59   C134  S    
C184  C187  A    
C32   C128  A    
C72   C80   A    
C56   C137  S    
C150  Cl7   S    
C5    C73   S    
O41   Zn11  S    
C13   C171  A    
C117  C125  A    
C25   C33   A    
C119  C127  A    
C140  O46   A    
C4    O4    A    
C138  O48   A    
O58   H10   S    
O2    Zn2   S    
C87   O11   A    
C88   O12   A    
C125  Cl25  S    
C157  C167  A    
C80   C120  A    
C158  C168  A    
O13   Zn2   S    
C188  O52   S    
C164  C165  A    
C152  Cl5   S    
C40   C115  A    
C101  C109  A    
C136  O36   A    
C177  C185  A    
C139  O39   A    
C120  O72   S    
C162  C166  A    
O34   Zn12  S    
C79   C119  A    
C133  O33   A    
O60   H12   S    
O38   Zn10  S    
C153  C155  A    
C106  O66   S    
O47   Zn10  S    
C154  C156  A    
C92   O16   A    
O19   Zn3   S    
C172  C180  A    
C173  C181  A    
O70   H22   S    
C157  C159  A    
C83   C99   A    
O55   H7    S    
C126  Cl26  S    
C158  C160  A    
C86   O18   A    
C74   C82   A    
C103  O63   S    
O10   Zn5   S    
C153  Cl4   S    
C47   C103  A    
C110  Cl18  S    
C141  C149  A    
C50   C58   A    
O23   Zn7   S    
C163  C166  A    
C147  C161  A    
O64   H16   S    
C38   C113  A    
C49   C105  A    
C54   C62   A    
C28   C39   A    
C136  O42   A    
C1    C69   S    
C23   C44   A    
O31   Zn4   S    
C3    C71   S    
O66   H18   S    
C19   C173  A    
C79   C95   A    
C92   C179  S    
C51   C99   A    
C46   C54   A    
O27   Zn8   S    
O17   Zn1   S    
C45   C101  A    
C151  Cl6   S    
C185  O49   S    
C19   O59   S    
O8    Zn8   S    
C19   C142  A    
C1    O25   A    
C102  C110  A    
C7    O7    A    
C35   C131  A    
C4    C72   S    
C5    O5    A    
C33   C129  A    
O25   Zn6   S    
C123  C131  A    
O48   Zn9   S    
C62   Cl10  S    
C121  C129  A    
C13   O53   S    
C120  C128  A    
C26   C37   A    
C10   C170  A    
C33   C41   A    
C142  C150  A    
C36   C132  A    
O76   H28   S    
O46   Zn10  S    
C124  O76   S    
C75   C83   A    
O69   H21   S    
C77   C93   A    
C8    O8    A    
O75   H27   S    
O72   H24   S    
C44   C111  A    
C16   C170  A    
C28   C36   A    
C144  C152  A    
C39   C116  A    
C135  O41   A    
C29   C37   A    
C50   C106  A    
C9    C172  A    
C148  C156  A    
O30   Zn1   S    
C83   C123  A    
C2    C70   S    
C60   C133  S    
C91   O15   A    
C23   C31   A    
C89   O13   A    
C30   C126  A    
C70   C78   A    
C53   C140  S    
O65   H17   S    
O43   Zn12  S    
O20   Zn4   S    
C63   Cl11  S    
C46   C102  A    
C55   C138  S    
C106  C114  A    
O26   Zn5   S    
C77   C117  A    
C101  O61   S    
C154  Cl3   S    
C48   C104  A    
C65   C73   A    
C159  C168  A    
C15   C169  A    
C160  C167  A    
C67   Cl15  S    
C68   Cl16  S    
C26   C34   A    
C105  C113  A    
O32   Zn3   S    
C6    C74   S    
C80   C96   A    
C107  O67   S    
O53   H5    S    
C7    O31   A    
C28   C100  A    
C32   C40   A    
C52   C108  A    
C105  O65   S    
C155  Cl2   S    
C58   C66   A    
C143  C157  A    
O37   Zn9   S    
C11   C173  A    
C14   C172  A    
C87   C184  S    
C90   O22   A    
C88   C183  S    
C7    C75   S    
O40   Zn9   S    
C123  O75   S    
C133  O43   A    
C8    O32   A    
C3    O3    A    
O57   H9    S    
C57   C136  S    
O12   Zn7   S    
C87   O19   A    
O15   Zn4   S    
C26   C98   A    
C12   C175  A    
C116  Cl24  S    
C41   C110  A    
C150  C152  A    
C51   C59   A    
C43   C112  A    
C144  C158  A    
O50   H2    S    
O42   Zn12  S    
C47   C55   A    
C18   O58   S    
C85   O9    A    
C48   C56   A    
O6    Zn6   S    
C127  Cl27  S    
C142  C160  A    
C12   C168  A    
C130  Cl30  S    
O35   Zn12  S    
C84   C124  A    
O44   Zn11  S    
C145  C153  A    
C131  Cl31  S    
O24   Zn8   S    
C81   C97   A    
C31   C39   A    
C64   C72   A    
O71   H23   S    
C180  C185  A    
C34   C130  A    
C47   C95   A    
C118  C126  A    
C13   C148  A    
C15   O55   S    
O29   Zn2   S    
C122  C130  A    
C1    O1    A    
