data_str_m2_o10_o17_f0_pcu.sym.89
_audit_creation_date              2012-12-10T16:44:46-0500
_audit_creation_method            fapswitch 2.2
_symmetry_space_group_name_H-M    P1
_symmetry_Int_Tables_number       1
_space_group_crystal_system       triclinic
_cell_length_a                    14.990703
_cell_length_b                    8.782677
_cell_length_c                    7.440306
_cell_angle_alpha                 102.868541
_cell_angle_beta                  93.888679
_cell_angle_gamma                 92.848634
_cell_volume                      950.660453746

loop_
_atom_site_label
_atom_site_type_symbol
_atom_type_description
_atom_site_fract_x
_atom_site_fract_y
_atom_site_fract_z
_atom_type_partial_charge
C1    C     C_R   0.498433 0.200624 0.453969 0.839068
C2    C     C_R   0.180177 0.350049 0.433498 -0.058429
C3    C     C_R   0.767088 0.509842 0.491957 -0.148795
C4    C     C_R   0.232912 0.490154 0.508043 -0.148801
C5    C     C_R   0.805603 0.370816 0.421951 -0.180784
C6    C     C_R   0.194398 0.629173 0.578073 -0.180787
C7    C     C_R   0.897979 0.365843 0.428939 0.081619
C8    C     C_R   0.102021 0.634148 0.571082 0.081621
C9    C     C_R   0.953147 0.503978 0.498584 -0.012929
C10   C     C_R   0.046853 0.496014 0.501430 -0.012930
C11   C     C_R   0.914560 0.649454 0.564633 0.019622
C12   C     C_R   0.501562 0.799375 0.546029 0.838990
C13   C     C_R   0.085442 0.350540 0.435372 0.019631
C14   C     C_R   0.935111 0.222485 0.370555 -0.249848
C15   C     C_R   0.064891 0.777504 0.629472 -0.249842
C16   C     C_2   0.774315 0.791655 0.651235 0.938127
C17   C     C_2   0.225681 0.208356 0.348687 0.938148
C18   C     C_2   0.532411 0.954688 0.245299 0.936477
C19   C     C_2   0.467545 0.045303 0.754666 0.936411
C20   C     C_R   0.028073 0.211837 0.376590 0.408003
C21   C     C_R   0.971929 0.788155 0.623429 0.407986
C22   C     C_2   0.505598 0.035446 0.429063 -0.244695
C23   C     C_2   0.494382 0.964549 0.570926 -0.244711
C24   C     C_R   0.329203 0.497016 0.502506 0.825301
C25   C     C_R   0.670797 0.502982 0.497494 0.825269
C26   C     C_R   0.819822 0.649949 0.566484 -0.058413
Cu1   Cu    Cu3+1 0.510010 0.517380 0.684380 1.041061
Cu2   Cu    Cu3+1 0.489990 0.482620 0.315620 1.041079
H1    H     H_    0.762965 0.264448 0.368515 0.174020
H2    H     H_    0.986448 0.016470 0.703394 0.341835
H3    H     H_    0.633070 0.893112 0.083399 0.335578
H4    H     H_    0.366856 0.106938 0.916466 0.335541
H5    H     H_    0.237036 0.735538 0.631520 0.174009
H6    H     H_    0.891235 0.117075 0.322853 0.179374
H7    H     H_    0.108766 0.882911 0.677189 0.179367
H8    H     H_    0.427212 0.383827 0.949599 0.238884
H9    H     H_    0.572788 0.616173 0.050402 0.238886
H10   H     H_    0.756728 0.954842 0.881530 0.342674
H11   H     H_    0.243232 0.045188 0.118352 0.342665
H12   H     H_    0.013554 0.983521 0.296616 0.341829
N1    N     N_2   0.474890 0.456420 0.038520 -0.187417
N2    N     N_2   0.525110 0.543580 0.961480 -0.187424
O1    O     O_R   0.506510 0.286130 0.619770 -0.576771
O2    O     O_R   0.791379 0.858647 0.840124 -0.721741
O3    O     O_2   0.279015 0.152375 0.443425 -0.592343
O4    O     O_R   0.208578 0.141371 0.159803 -0.721767
O5    O     O_3   0.062934 0.066593 0.331929 -0.710988
O6    O     O_3   0.937068 0.933398 0.668102 -0.710992
O7    O     O_2   0.474826 0.897379 0.121014 -0.562168
O8    O     O_R   0.623199 0.948321 0.214704 -0.733790
O9    O     O_2   0.525113 0.102554 0.879008 -0.562196
O10   O     O_R   0.376748 0.051742 0.785170 -0.733796
O11   O     O_R   0.493490 0.713870 0.380230 -0.576754
O12   O     O_R   0.489600 0.256770 0.308360 -0.566217
O13   O     O_R   0.510400 0.743230 0.691640 -0.566242
O14   O     O_R   0.378710 0.514640 0.655720 -0.572321
O15   O     O_R   0.621290 0.485360 0.344280 -0.572322
O16   O     O_R   0.361800 0.485290 0.344300 -0.582250
O17   O     O_R   0.638200 0.514710 0.655700 -0.582248
O18   O     O_2   0.721011 0.847642 0.556443 -0.592369

loop_
_geom_bond_atom_site_label_1
_geom_bond_atom_site_label_2
_ccdc_geom_bond_type
C14   H6    S    
H12   O5    S    
C19   C23   S    
C1    O12   A    
C8    C10   A    
H10   O2    S    
C11   C26   A    
Cu2   O16   S    
C24   O14   A    
C3    C26   A    
C5    C7    A    
N1    N2    D    
C16   O2    S    
C2    C4    A    
C12   O11   A    
C12   C23   S    
C6    H5    S    
C15   C21   A    
Cu2   O11   S    
C21   O6    S    
Cu1   Cu2   S    
C1    C22   S    
Cu1   O17   S    
Cu2   O15   S    
C2    C17   S    
C9    C11   A    
Cu1   N2    S    
H8    N1    S    
C25   O15   A    
H11   O4    S    
C16   O18   D    
H2    O6    S    
C17   O3    D    
C8    C15   A    
C5    H1    S    
C22   C23   D    
C16   C26   S    
C4    C24   S    
Cu1   O13   S    
C20   O5    S    
H3    O8    S    
C11   C21   A    
C12   O13   A    
C19   O9    D    
Cu2   N1    S    
C3    C25   S    
C2    C13   A    
C17   O4    S    
C18   O8    S    
C14   C20   A    
C24   O16   A    
C4    C6    A    
C9    C10   A    
C15   H7    S    
H9    N2    S    
C7    C9    A    
Cu1   O1    S    
Cu2   O12   S    
Cu1   O14   S    
H4    O10   S    
C6    C8    A    
C25   O17   A    
C13   C20   A    
C18   C22   S    
C19   O10   S    
C1    O1    A    
C7    C14   A    
C18   O7    D    
C3    C5    A    
C10   C13   A    
