data_str_m2_o14_o18_f0_pcu.sym.133
_audit_creation_date              2012-12-10T17:19:53-0500
_audit_creation_method            fapswitch 2.2
_symmetry_space_group_name_H-M    P1
_symmetry_Int_Tables_number       1
_space_group_crystal_system       triclinic
_cell_length_a                    9.612431
_cell_length_b                    10.775507
_cell_length_c                    15.498665
_cell_angle_alpha                 87.504051
_cell_angle_beta                  74.136023
_cell_angle_gamma                 90.05758
_cell_volume                      1542.58747693

loop_
_atom_site_label
_atom_site_type_symbol
_atom_type_description
_atom_site_fract_x
_atom_site_fract_y
_atom_site_fract_z
_atom_type_partial_charge
C1    C     C_R   0.998648 0.262607 0.503049 0.794015
C2    C     C_R   0.670638 0.528540 0.904620 0.091506
C3    C     C_R   0.769270 0.571574 0.950311 0.169277
C4    C     C_R   0.520322 0.518206 0.950092 0.067836
C5    C     C_R   0.473083 0.538903 0.043672 0.067986
C6    C     C_R   0.575509 0.581231 0.086714 -0.210382
C7    C     C_R   0.720169 0.598454 0.040480 -0.245913
C8    C     C_R   0.415382 0.490969 0.904634 -0.219742
C9    C     C_R   0.270055 0.477457 0.950132 -0.241336
C10   C     C_R   0.223549 0.489004 0.042564 0.166796
C11   C     C_R   0.324488 0.518379 0.090635 0.091042
C12   C     C_R   0.918130 0.501907 0.671868 0.771343
C13   C     C_R   0.076674 0.470222 0.087632 -0.212583
C14   C     C_R   0.028601 0.477549 0.180460 -0.200839
C15   C     C_R   0.273624 0.521901 0.184565 -0.204639
C16   C     C_R   0.079625 0.120100 0.646693 -0.187549
C17   C     C_R   0.120158 0.050843 0.713766 -0.137574
C18   C     C_R   0.120197 0.921770 0.713646 -0.126393
C19   C     C_R   0.079923 0.861167 0.646375 -0.168171
C20   C     C_R   0.040610 0.929447 0.576780 0.095687
C21   C     C_R   0.040400 0.060713 0.576967 0.098375
C22   C     C_R   0.995877 0.128386 0.509032 -0.103349
C23   C     C_R   0.998964 0.737072 0.502509 0.785673
C24   C     C_R   0.946676 0.067487 0.445146 -0.183954
C25   C     C_R   0.946961 0.939464 0.444926 -0.168170
C26   C     C_R   0.996367 0.870467 0.508630 -0.084736
C27   C     C_R   0.697776 0.663030 0.379705 -0.148191
C28   C     C_R   0.652593 0.743923 0.321024 -0.323597
C29   C     C_R   0.508598 0.746711 0.321210 -0.008082
C30   C     C_R   0.409863 0.666388 0.380868 -0.147578
C31   C     C_R   0.451632 0.581364 0.441292 0.169560
C32   C     C_R   0.601079 0.580550 0.440994 0.213544
C33   C     C_R   0.548959 0.423225 0.556175 -0.057276
C34   C     C_R   0.081922 0.500670 0.327985 0.797090
C35   C     C_R   0.401208 0.423130 0.556066 -0.056117
C36   C     C_R   0.872179 0.516679 0.769166 -0.043502
C37   C     C_R   0.127478 0.501144 0.229513 -0.043144
C38   C     C_R   0.916417 0.588195 0.905025 -0.216916
C39   C     C_R   0.967557 0.561514 0.814797 -0.215631
C40   C     C_R   0.726366 0.496934 0.814816 -0.237808
Cu1   Cu    Cu3+1 0.140660 0.499990 0.500010 0.933801
Cu2   Cu    Cu3+1 0.859340 0.500010 0.499990 0.935514
H1    H     H_    0.794417 0.632337 0.075942 0.149116
H2    H     H_    0.999228 0.447678 0.051209 0.144974
H3    H     H_    0.910930 0.119597 0.393878 0.152485
H4    H     H_    0.076681 0.219905 0.651352 0.136896
H5    H     H_    0.149781 0.868245 0.766544 0.136786
H6    H     H_    0.077403 0.760844 0.650755 0.149403
H7    H     H_    0.911409 0.893946 0.393500 0.143816
H8    H     H_    0.583546 0.360215 0.602281 0.134162
H9    H     H_    0.809982 0.669458 0.374094 0.205136
H10   H     H_    0.731218 0.805166 0.275236 0.147416
H11   H     H_    0.346550 0.536623 0.224875 0.152992
H12   H     H_    0.302002 0.674130 0.377075 0.230650
H13   H     H_    0.325738 0.360065 0.602055 0.130076
H14   H     H_    0.915048 0.461322 0.213946 0.161714
H15   H     H_    0.193708 0.456015 0.912609 0.146654
H16   H     H_    0.991519 0.624019 0.939062 0.141222
H17   H     H_    0.080571 0.578689 0.780365 0.150305
H18   H     H_    0.658680 0.455916 0.778451 0.143238
H19   H     H_    0.547121 0.605794 0.155812 0.152011
H20   H     H_    0.441018 0.482744 0.833028 0.140874
N1    N     N_R   0.648320 0.501210 0.499140 -0.196624
N2    N     N_R   0.352470 0.501290 0.499110 -0.194595
O1    O     O_R   0.118810 0.319640 0.500010 -0.572664
O2    O     O_R   0.881240 0.319660 0.500000 -0.575631
O3    O     O_R   0.055570 0.499980 0.629840 -0.597516
O4    O     O_R   0.818000 0.500010 0.629830 -0.578171
O5    O     O_R   0.118760 0.680340 0.500000 -0.598433
O6    O     O_R   0.881190 0.680360 0.499990 -0.592054
O7    O     O_R   0.182000 0.499990 0.370170 -0.596935
O8    O     O_R   0.944430 0.500020 0.370160 -0.603822
H21   H     H_    0.149804 0.097526 0.766741 0.134534
C41   C     C_2   0.462871 0.834129 0.258054 0.347274
H22   H     H_    0.542127 0.895252 0.212398 0.079232
O9    O     O_2   0.336914 0.838898 0.255893 -0.560393

loop_
_geom_bond_atom_site_label_1
_geom_bond_atom_site_label_2
_ccdc_geom_bond_type
C14   H14   S    
C16   C21   A    
C40   H18   S    
C34   C37   S    
Cu1   Cu2   S    
C23   O5    A    
C19   C20   A    
C4    C8    A    
C18   H5    S    
Cu1   O3    S    
C12   O4    A    
C41   O9    D    
C24   H3    S    
C15   H11   S    
C6    H19   S    
C28   C29   A    
C5    C11   A    
C3    C7    A    
C5    C6    A    
Cu2   O6    S    
C18   C19   A    
C23   C26   S    
C15   C37   A    
C38   H16   S    
C11   C15   A    
C3    C38   A    
C8    C9    A    
C1    O1    A    
C35   N2    A    
C7    H1    S    
C12   C36   S    
C9    C10   A    
Cu1   O7    S    
C1    C22   S    
C21   C22   A    
C17   H21   S    
C23   O6    A    
C27   H9    S    
C17   C18   A    
C38   C39   A    
C12   O3    A    
C41   H22   S    
C35   H13   S    
C36   C40   A    
C24   C25   A    
C16   H4    S    
C19   H6    S    
C16   C17   A    
Cu1   O1    S    
C29   C41   S    
C25   C26   A    
C2    C4    A    
C29   C30   A    
C30   H12   S    
C31   C32   A    
C33   N1    A    
C39   H17   S    
Cu2   O8    S    
C1    O2    A    
C22   C24   A    
C34   O8    A    
Cu1   O5    S    
C27   C32   A    
C31   N2    A    
C36   C39   A    
C32   N1    A    
C4    C5    A    
C10   C13   A    
C6    C7    A    
C2    C3    A    
C33   H8    S    
C14   C37   A    
C28   H10   S    
C30   C31   A    
C20   C26   A    
C34   O7    A    
C33   C35   A    
C9    H15   S    
Cu2   O4    S    
C25   H7    S    
C10   C11   A    
C2    C40   A    
C20   C21   A    
C27   C28   A    
Cu2   O2    S    
Cu1   N2    S    
C13   C14   A    
Cu2   N1    S    
C13   H2    S    
C8    H20   S    
