data_str_m4_o17_o17_f0_acs.sym.74
_audit_creation_date              2012-12-11T14:30:19-0500
_audit_creation_method            fapswitch 2.2
_symmetry_space_group_name_H-M    P1
_symmetry_Int_Tables_number       1
_space_group_crystal_system       triclinic
_cell_length_a                    12.68056
_cell_length_b                    12.680559
_cell_length_c                    27.019064
_cell_angle_alpha                 90.001032
_cell_angle_beta                  89.999234
_cell_angle_gamma                 119.903497
_cell_volume                      3766.16430966

loop_
_atom_site_label
_atom_site_type_symbol
_atom_type_description
_atom_site_fract_x
_atom_site_fract_y
_atom_site_fract_z
_atom_type_partial_charge
C1    C     C_R   0.558128 0.456428 0.822126 0.543340
C2    C     C_R   0.456437 0.558142 0.177870 0.543340
C3    C     C_R   0.002977 0.307291 0.473396 0.281637
C4    C     C_R   0.305145 0.999962 0.025031 0.274309
C5    C     C_R   0.691695 0.697731 0.474255 0.282582
C6    C     C_R   0.307797 0.004047 0.526498 0.281599
C7    C     C_R   0.001229 0.305868 0.974840 0.274140
C8    C     C_R   0.698357 0.691111 0.525629 0.282629
C9    C     C_R   0.307229 0.002899 0.973396 0.281645
C10   C     C_R   0.000047 0.305215 0.525032 0.274269
C11   C     C_R   0.697676 0.691774 0.974243 0.282545
C12   C     C_R   0.441140 0.897392 0.322422 0.544119
C13   C     C_R   0.101458 0.543713 0.177952 0.543474
C14   C     C_R   0.001393 0.499064 0.973902 0.016523
C15   C     C_R   0.505560 0.013139 0.525718 0.013513
C16   C     C_R   0.505097 0.498229 0.974119 0.016326
C17   C     C_R   0.001397 0.498987 0.526084 0.016591
C18   C     C_R   0.505540 0.013139 0.974270 0.013524
C19   C     C_R   0.505158 0.498217 0.525860 0.016327
C20   C     C_R   0.499052 0.001406 0.473903 0.016548
C21   C     C_R   0.897381 0.441125 0.677574 0.544129
C22   C     C_R   0.013116 0.505553 0.025717 0.013520
C23   C     C_R   0.498216 0.505113 0.474122 0.016314
C24   C     C_R   0.498963 0.001380 0.026083 0.016592
C25   C     C_R   0.013158 0.505563 0.474271 0.013524
C26   C     C_R   0.498210 0.505170 0.025857 0.016325
C27   C     C_R   0.007748 0.694215 0.973185 -0.091411
C28   C     C_R   0.702826 0.023897 0.524413 -0.078197
C29   C     C_R   0.314249 0.305390 0.974469 -0.099762
C30   C     C_R   0.009172 0.694785 0.526927 -0.091798
C31   C     C_R   0.703440 0.025258 0.975684 -0.078176
C32   C     C_R   0.543728 0.101465 0.822046 0.543465
C33   C     C_R   0.313622 0.306091 0.525624 -0.099801
C34   C     C_R   0.694257 0.007904 0.473168 -0.091475
C35   C     C_R   0.023742 0.702775 0.024429 -0.078192
C36   C     C_R   0.305443 0.314231 0.474463 -0.099666
C37   C     C_R   0.694827 0.009257 0.026928 -0.091836
C38   C     C_R   0.025192 0.703407 0.475684 -0.078228
C39   C     C_R   0.306113 0.313572 0.025630 -0.099766
C40   C     C_R   0.969540 0.578918 0.896714 -0.131855
C41   C     C_R   0.619266 0.046320 0.602171 -0.125826
C42   C     C_R   0.424870 0.385115 0.897400 -0.135654
C43   C     C_R   0.558143 0.456435 0.677870 0.543339
C44   C     C_R   0.970104 0.579074 0.603328 -0.132140
C45   C     C_R   0.619569 0.046904 0.897874 -0.125669
C46   C     C_R   0.424667 0.385442 0.602636 -0.135693
C47   C     C_R   0.578922 0.969607 0.396709 -0.131900
C48   C     C_R   0.046250 0.619233 0.102178 -0.125841
C49   C     C_R   0.385135 0.424872 0.397399 -0.135639
C50   C     C_R   0.579088 0.970143 0.103329 -0.132162
C51   C     C_R   0.046914 0.619580 0.397875 -0.125691
C52   C     C_R   0.385458 0.424648 0.102638 -0.135677
C53   C     C_R   0.046261 0.523884 0.128458 -0.006116
C54   C     C_R   0.897400 0.441148 0.822420 0.544113
C55   C     C_R   0.474526 0.953067 0.371997 -0.002471
C56   C     C_R   0.477556 0.523833 0.128332 -0.003078
C57   C     C_R   0.046276 0.523984 0.371533 -0.006123
C58   C     C_R   0.474402 0.952991 0.127985 -0.002396
C59   C     C_R   0.477488 0.523731 0.371652 -0.003130
C60   C     C_R   0.523900 0.046269 0.628459 -0.006137
C61   C     C_R   0.953096 0.474559 0.871992 -0.002517
C62   C     C_R   0.523829 0.477547 0.628333 -0.003079
C63   C     C_R   0.523979 0.046283 0.871534 -0.006129
C64   C     C_R   0.952996 0.474414 0.627985 -0.002423
C65   C     C_R   0.543716 0.101458 0.677952 0.543473
C66   C     C_R   0.523711 0.477492 0.871648 -0.003126
C67   C     C_R   0.994647 0.592172 0.947636 0.007766
C68   C     C_R   0.609115 0.026194 0.550999 0.007716
C69   C     C_R   0.413304 0.396470 0.948405 0.007842
C70   C     C_R   0.995296 0.592374 0.552411 0.007706
C71   C     C_R   0.609415 0.026831 0.949044 0.007793
C72   C     C_R   0.413061 0.396809 0.551631 0.007908
C73   C     C_R   0.592182 0.994724 0.447629 0.007760
C74   C     C_R   0.026111 0.609083 0.051007 0.007716
C75   C     C_R   0.396489 0.413305 0.448404 0.007848
C76   C     C_R   0.456427 0.558132 0.322127 0.543340
C77   C     C_R   0.592382 0.995328 0.052411 0.007703
C78   C     C_R   0.026823 0.609418 0.449045 0.007775
C79   C     C_R   0.396820 0.413042 0.051633 0.007935
C80   C     C_R   0.971164 0.388447 0.897685 -0.133654
C81   C     C_R   0.415113 0.016539 0.603979 -0.129296
C82   C     C_R   0.605700 0.584547 0.896538 -0.127504
C83   C     C_R   0.970435 0.387980 0.602229 -0.133565
C84   C     C_R   0.414995 0.016036 0.895959 -0.129347
C85   C     C_R   0.606156 0.584352 0.603383 -0.127457
C86   C     C_R   0.388367 0.971040 0.397701 -0.133689
C87   C     C_R   0.441125 0.897381 0.177574 0.544136
C88   C     C_R   0.016570 0.415108 0.103972 -0.129295
C89   C     C_R   0.584514 0.605749 0.396548 -0.127501
C90   C     C_R   0.387933 0.970382 0.102227 -0.133542
C91   C     C_R   0.015994 0.414989 0.395955 -0.129359
C92   C     C_R   0.584351 0.606186 0.103378 -0.127451
C93   C     C_R   0.993967 0.398508 0.948465 -0.043329
C94   C     C_R   0.408013 0.010019 0.552334 -0.038766
C95   C     C_R   0.603506 0.592549 0.948075 -0.041903
C96   C     C_R   0.993311 0.398087 0.551458 -0.043384
C97   C     C_R   0.407771 0.009452 0.947603 -0.038772
C98   C     C_R   0.101461 0.543728 0.322046 0.543461
C99   C     C_R   0.603911 0.592251 0.551848 -0.041938
C100  C     C_R   0.398453 0.993899 0.448477 -0.043372
C101  C     C_R   0.010048 0.408013 0.052325 -0.038781
C102  C     C_R   0.592506 0.603545 0.448083 -0.041898
C103  C     C_R   0.398039 0.993260 0.051456 -0.043395
C104  C     C_R   0.009478 0.407801 0.447603 -0.038760
C105  C     C_R   0.592236 0.603949 0.051841 -0.041948
C106  C     C_R   0.004120 0.307818 0.026476 0.281547
C107  C     C_R   0.305812 0.001142 0.474862 0.274199
C108  C     C_R   0.691070 0.698428 0.025619 0.282619
Cr1   Cr    Cr6+3 0.487630 0.241180 0.750000 1.015920
Cr2   Cr    Cr6+3 0.753550 0.512370 0.750000 1.019382
Cr3   Cr    Cr6+3 0.758820 0.246450 0.750000 1.020357
Cr4   Cr    Cr6+3 0.241180 0.487630 0.250000 1.015913
Cr5   Cr    Cr6+3 0.512370 0.753550 0.250000 1.019373
Cr6   Cr    Cr6+3 0.246450 0.758820 0.250000 1.020320
H1    H     H_    0.067064 0.702942 0.121000 0.133230
H2    H     H_    0.703477 0.068214 0.879100 0.133490
H3    H     H_    0.957562 0.646528 0.623005 0.118084
H4    H     H_    0.360139 0.302745 0.878318 0.115670
H5    H     H_    0.007519 0.339480 0.125626 0.138992
H6    H     H_    0.306966 0.955870 0.378715 0.147575
H7    H     H_    0.658181 0.676637 0.124471 0.143969
H8    H     H_    0.006444 0.339221 0.374244 0.138906
H9    H     H_    0.306315 0.954750 0.121162 0.147739
H10   H     H_    0.658459 0.675924 0.375406 0.143840
H11   H     H_    0.339476 0.007461 0.625636 0.139096
H12   H     H_    0.646154 0.956620 0.377074 0.118290
H13   H     H_    0.956115 0.307091 0.878690 0.147752
H14   H     H_    0.676590 0.658181 0.624479 0.143968
H15   H     H_    0.339276 0.006588 0.874254 0.138911
H16   H     H_    0.954846 0.306389 0.621166 0.147783
H17   H     H_    0.675851 0.658505 0.875391 0.143802
H18   H     H_    0.032592 0.781924 0.043416 0.209421
H19   H     H_    0.767533 0.005884 0.453517 0.188669
H20   H     H_    0.229260 0.241522 0.044909 0.173015
H21   H     H_    0.034651 0.782850 0.456747 0.209398
H22   H     H_    0.768363 0.007825 0.046624 0.188742
H23   H     H_    0.303316 0.359627 0.121769 0.115405
H24   H     H_    0.228276 0.242462 0.455229 0.173339
H25   H     H_    0.781997 0.032802 0.543392 0.209439
H26   H     H_    0.005674 0.767476 0.953540 0.188695
H27   H     H_    0.241596 0.229223 0.544899 0.172963
H28   H     H_    0.782913 0.034763 0.956749 0.209468
H29   H     H_    0.007678 0.768286 0.546621 0.188731
H30   H     H_    0.242490 0.228196 0.955238 0.173234
H31   H     H_    0.059067 0.241822 0.078886 0.299280
H32   H     H_    0.244084 0.056398 0.421263 0.302907
H33   H     H_    0.750580 0.824010 0.075924 0.299832
H34   H     H_    0.068228 0.703487 0.379103 0.133437
H35   H     H_    0.057453 0.240982 0.420932 0.299338
H36   H     H_    0.242933 0.054840 0.078571 0.302802
H37   H     H_    0.751746 0.823219 0.423903 0.299857
H38   H     H_    0.241883 0.059119 0.578882 0.299264
H39   H     H_    0.056815 0.244322 0.921310 0.302949
H40   H     H_    0.823931 0.750650 0.575932 0.299845
H41   H     H_    0.240839 0.057316 0.920941 0.299337
H42   H     H_    0.055030 0.243088 0.578555 0.302812
H43   H     H_    0.823146 0.751908 0.923876 0.299861
H44   H     H_    0.646572 0.957642 0.123007 0.118041
H45   H     H_    0.302788 0.360122 0.378313 0.115674
H46   H     H_    0.702988 0.067174 0.620987 0.133268
H47   H     H_    0.956487 0.646120 0.877088 0.118319
H48   H     H_    0.359669 0.303291 0.621763 0.115415
O1    O     O_R   0.460870 0.120930 0.805240 -0.521277
O2    O     O_R   0.120930 0.460870 0.194760 -0.521292
O3    O     O_R   0.539130 0.660060 0.305240 -0.521122
O4    O     O_R   0.339940 0.879070 0.194760 -0.522336
O5    O     O_R   0.498910 0.350470 0.801870 -0.499202
O6    O     O_R   0.851560 0.501090 0.698130 -0.498071
O7    O     O_R   0.649530 0.148440 0.801870 -0.499316
O8    O     O_R   0.498910 0.350470 0.698130 -0.499149
O9    O     O_R   0.851560 0.501090 0.801870 -0.498108
O10   O     O_R   0.649530 0.148440 0.698130 -0.499284
O11   O     O_R   0.350470 0.498910 0.301870 -0.499198
O12   O     O_R   0.660060 0.539130 0.694760 -0.521146
O13   O     O_R   0.501090 0.851560 0.198130 -0.498068
O14   O     O_R   0.148440 0.649530 0.301870 -0.499330
O15   O     O_R   0.350470 0.498910 0.198130 -0.499145
O16   O     O_R   0.501090 0.851560 0.301870 -0.498111
O17   O     O_R   0.148440 0.649530 0.198130 -0.499283
O18   O     O_3   0.666667 0.333333 0.750000 -0.234112
O19   O     O_3   0.333333 0.666667 0.250000 -0.234106
O20   O     O_3   0.004528 0.211198 0.049878 -0.659942
O21   O     O_3   0.211721 0.006523 0.451570 -0.665011
O22   O     O_3   0.784858 0.798306 0.048720 -0.645413
O23   O     O_R   0.879070 0.339940 0.805240 -0.522281
O24   O     O_3   0.002903 0.210490 0.449940 -0.660009
O25   O     O_3   0.210730 0.004831 0.048289 -0.665139
O26   O     O_3   0.785779 0.797261 0.451109 -0.645312
O27   O     O_3   0.211189 0.004423 0.549920 -0.659904
O28   O     O_3   0.006624 0.211806 0.951525 -0.665053
O29   O     O_3   0.798205 0.784912 0.548732 -0.645401
O30   O     O_3   0.210382 0.002744 0.949942 -0.659981
O31   O     O_3   0.004943 0.210825 0.548293 -0.665122
O32   O     O_3   0.797177 0.785902 0.951094 -0.645307
O33   O     O_R   0.460870 0.120930 0.694760 -0.521291
O34   O     O_R   0.660060 0.539130 0.805240 -0.521116
O35   O     O_R   0.879070 0.339940 0.694760 -0.522330
O36   O     O_R   0.120930 0.460870 0.305240 -0.521265
O37   O     O_R   0.539130 0.660060 0.194760 -0.521146
O38   O     O_R   0.339940 0.879070 0.305240 -0.522301

loop_
_geom_bond_atom_site_label_1
_geom_bond_atom_site_label_2
_ccdc_geom_bond_type
H33   O22   S    
C3    C104  A    
C12   O16   A    
C32   O7    A    
C4    C103  A    
C35   C74   A    
C89   C102  A    
C45   C71   A    
C90   H9    S    
C45   H2    S    
C11   O32   S    
C91   C104  A    
H40   O29   S    
C58   C87   S    
C15   C94   A    
C88   C101  A    
C64   C83   A    
C44   C64   A    
C22   C101  A    
H32   O21   S    
C46   C62   A    
C18   C24   A    
C84   C97   A    
C44   H3    S    
C4    O25   S    
C76   O11   A    
C28   C68   A    
C8    C99   A    
Cr5   O3    S    
C43   O12   A    
C87   O4    A    
C1    O5    A    
C61   C80   A    
C32   O1    A    
C84   H15   S    
C101  C106  A    
C33   C36   A    
C30   C38   A    
Cr3   O10   S    
C59   C89   A    
C1    C66   S    
C106  O20   S    
C21   C64   S    
Cr1   O5    S    
C33   C72   A    
Cr2   O6    S    
Cr5   O19   S    
C6    C94   A    
C91   H8    S    
C9    C97   A    
C6    C107  A    
C49   C75   A    
C7    O28   S    
C44   C70   A    
C51   C57   A    
C2    O15   A    
C10   C96   A    
C52   C79   A    
C86   C100  A    
C14   C93   A    
C46   C72   A    
Cr5   O13   S    
Cr2   O9    S    
C31   C71   A    
Cr5   O16   S    
C28   C34   A    
H35   O24   S    
Cr6   O38   S    
C19   C72   A    
H37   O26   S    
C28   H25   S    
C7    C93   A    
C26   C105  A    
Cr4   O36   S    
C30   C70   A    
C43   O8    A    
Cr6   O4    S    
C41   C68   A    
C29   C69   A    
H39   O28   S    
Cr2   O12   S    
C16   C26   A    
C15   C20   A    
Cr4   O2    S    
C62   C85   A    
Cr3   O23   S    
C108  O22   S    
C65   O10   A    
H43   O32   S    
C50   C58   A    
C48   C74   A    
C1    O34   A    
C47   C73   A    
C83   H16   S    
C38   H21   S    
Cr1   O1    S    
C10   O31   S    
C23   C75   A    
H36   O25   S    
C19   C99   A    
C42   H4    S    
C38   C78   A    
C34   H19   S    
C27   C35   A    
C13   O17   A    
C29   H30   S    
C37   C77   A    
H31   O20   S    
C45   C63   A    
C42   C69   A    
C50   H44   S    
C30   H29   S    
C25   C78   A    
C107  O21   S    
Cr3   O7    S    
C39   C79   A    
C19   C23   A    
C13   C53   S    
H38   O27   S    
C85   C99   A    
C36   C75   A    
C66   C82   A    
C41   H46   S    
C98   O14   A    
C60   C81   A    
C92   C105  A    
C20   C100  A    
Cr2   O18   S    
C14   C67   A    
C29   C39   A    
C52   H23   S    
Cr5   O37   S    
C7    C106  A    
C76   O3    A    
C17   C96   A    
C105  C108  A    
C88   H5    S    
C58   C90   A    
C48   H1    S    
C18   C97   A    
C60   C65   S    
C17   C70   A    
Cr2   O34   S    
Cr3   O18   S    
C12   O38   A    
C22   C74   A    
C47   H12   S    
C9    O30   S    
C3    O24   S    
C11   C108  A    
C2    O37   A    
Cr1   O8    S    
C40   C67   A    
C13   O2    A    
C47   C55   A    
C11   C95   A    
C18   C71   A    
C5    C102  A    
C100  C107  A    
C37   H22   S    
C82   C95   A    
C57   C91   A    
C81   H11   S    
C21   O6    A    
C54   O9    A    
C82   H17   S    
C16   C69   A    
C26   C79   A    
C41   C60   A    
C21   O35   A    
C54   C61   S    
C5    C8    A    
C25   C104  A    
Cr4   O19   S    
C80   H13   S    
C48   C53   A    
C32   C63   S    
Cr6   O19   S    
C87   O13   A    
C15   C68   A    
C27   H26   S    
C49   C59   A    
C63   C84   A    
C24   C103  A    
C33   H27   S    
C89   H10   S    
C31   H28   S    
H42   O31   S    
C80   C93   A    
C51   C78   A    
C17   C25   A    
C40   H47   S    
C3    C10   A    
C2    C56   S    
C92   H7    S    
Cr3   O35   S    
C81   C94   A    
C16   C95   A    
Cr1   O18   S    
C14   C22   A    
C98   O36   A    
C83   C96   A    
C51   H34   S    
C55   C86   A    
C57   C98   S    
C59   C76   S    
C6    O27   S    
Cr6   O14   S    
C20   C73   A    
Cr1   O33   S    
C53   C88   A    
C90   C103  A    
C12   C55   S    
C27   C67   A    
H41   O30   S    
C40   C61   A    
C34   C73   A    
C23   C102  A    
C31   C37   A    
C24   C77   A    
C56   C92   A    
Cr6   O17   S    
C46   H48   S    
C50   C77   A    
C42   C66   A    
C54   O23   A    
C49   H45   S    
C85   H14   S    
C86   H6    S    
C8    O29   S    
C5    O26   S    
C4    C9    A    
C36   H24   S    
C35   H18   S    
C52   C56   A    
C43   C62   S    
Cr4   O11   S    
Cr4   O15   S    
C65   O33   A    
C39   H20   S    
