data_str_m2_o11_o22_f0_pcu.sym.71
_audit_creation_date              2012-10-26T18:49:11-0400
_audit_creation_method            fapswitch 2.2
_symmetry_space_group_name_H-M    P1
_symmetry_Int_Tables_number       1
_space_group_crystal_system       triclinic
_cell_length_a                    10.875696
_cell_length_b                    10.890111
_cell_length_c                    9.831136
_cell_angle_alpha                 92.382305
_cell_angle_beta                  90.572559
_cell_angle_gamma                 97.024135
_cell_volume                      1154.50432915

loop_
_atom_site_label
_atom_site_type_symbol
_atom_type_description
_atom_site_fract_x
_atom_site_fract_y
_atom_site_fract_z
_atom_type_partial_charge
C1    C     C_R   0.498800 0.265574 0.497428 0.583750
C2    C     C_2   0.429775 0.413447 0.074188 0.353164
C3    C     C_R   0.262232 0.510903 0.498783 0.579262
C4    C     C_R   0.511253 0.735397 0.503371 0.521611
C5    C     C_R   0.740014 0.502094 0.499539 0.524907
C6    C     C_3   0.063893 0.414895 0.582908 -0.254306
C7    C     C_3   0.923749 0.417402 0.598907 -0.074214
C8    C     C_3   0.090599 0.651971 0.547548 0.300149
C9    C     C_3   0.069603 0.490932 0.341778 0.087498
C10   C     C_3   0.125314 0.520825 0.493232 -0.039950
C11   C     C_3   0.879134 0.507615 0.494968 0.026709
C12   C     C_3   0.944387 0.644896 0.527749 -0.016854
C13   C     C_3   0.923046 0.463005 0.345840 0.152785
C14   C     C_2   0.536907 0.935256 0.401239 -0.149689
C15   C     C_2   0.541575 0.869993 0.514378 0.202408
C16   C     C_2   0.550753 0.070269 0.403564 -0.090564
C17   C     C_2   0.486326 0.132269 0.491637 -0.006742
C18   C     C_2   0.424238 0.419231 0.915735 0.336645
Cu1   Cu    Cu3+1 0.500030 0.500020 0.638630 1.115306
Cu2   Cu    Cu3+1 0.499970 0.499980 0.361370 1.097697
H1    H     H_    0.107140 0.415081 0.683944 0.271369
H2    H     H_    0.103855 0.402687 0.308872 0.161125
H3    H     H_    0.864521 0.618924 0.244744 0.264926
H4    H     H_    0.882483 0.490599 0.138342 0.303473
H5    H     H_    0.243434 0.751045 0.458734 0.262685
H6    H     H_    0.125970 0.835056 0.494109 0.274097
H7    H     H_    0.612619 0.810193 0.837439 0.366743
H8    H     H_    0.288244 0.101304 0.825569 0.396987
H9    H     H_    0.219743 0.106526 0.116655 0.382258
H10   H     H_    0.955642 0.514994 0.785327 0.315470
H11   H     H_    0.896525 0.367322 0.796879 0.277617
H12   H     H_    0.931222 0.695271 0.434274 0.158527
H13   H     H_    0.251571 0.618556 0.877323 0.403279
H14   H     H_    0.853985 0.661979 0.713534 0.300591
H15   H     H_    0.804540 0.744867 0.589153 0.254985
H16   H     H_    0.088143 0.425255 0.077204 0.369956
H17   H     H_    0.793553 0.303802 0.344004 0.257452
H18   H     H_    0.940822 0.272490 0.369256 0.218276
H19   H     H_    0.517458 0.888525 0.302224 0.164537
H20   H     H_    0.609646 0.118105 0.328951 0.172800
H21   H     H_    0.423822 0.084188 0.562520 0.179084
H22   H     H_    0.565636 0.556985 0.899363 0.169442
H23   H     H_    0.080672 0.323856 0.536047 0.132147
H24   H     H_    0.538734 0.577204 0.109067 0.176867
H25   H     H_    0.876082 0.322675 0.574209 0.171744
N1    N     N_2   0.498630 0.498660 0.846910 -0.383004
N2    N     N_2   0.498590 0.498630 0.153040 -0.352610
N3    N     N_3   0.862397 0.523285 0.235848 -0.525712
N4    N     N_3   0.147039 0.748154 0.458847 -0.531585
N5    N     N_3   0.891373 0.446057 0.740598 -0.583720
N6    N     N_3   0.883648 0.715465 0.632257 -0.515681
N7    N     N_3   0.886046 0.328746 0.318543 -0.601440
O1    O     O_R   0.500020 0.321960 0.617040 -0.422474
O2    O     O_2   0.492545 0.974636 0.758015 -0.232853
O3    O     O_3   0.669915 0.836997 0.763687 -0.500530
O4    O     O_2   0.187130 0.317227 0.888422 -0.258506
O5    O     O_2   0.289598 0.293081 0.680043 -0.300112
O6    O     O_3   0.355239 0.163210 0.864207 -0.413628
O7    O     O_2   0.448742 0.186281 0.160975 -0.275978
O8    O     O_2   0.297157 0.293949 0.285449 -0.291036
O9    O     O_3   0.229177 0.186819 0.071585 -0.434011
O10   O     O_2   0.273856 0.780999 0.705871 -0.282202
O11   O     O_2   0.068652 0.778775 0.797605 -0.178091
O12   O     O_R   0.499980 0.321920 0.382900 -0.433785
O13   O     O_3   0.179704 0.585113 0.818520 -0.478620
O14   O     O_2   0.063075 0.709016 0.201919 -0.235274
O15   O     O_2   0.262452 0.633517 0.204897 -0.232589
O16   O     O_3   0.090485 0.513352 0.055566 -0.468626
O17   O     O_R   0.317710 0.500000 0.617070 -0.420088
O18   O     O_R   0.317670 0.499960 0.382930 -0.423003
O19   O     O_R   0.500020 0.678080 0.617100 -0.459585
O20   O     O_R   0.499980 0.678040 0.382960 -0.527113
O21   O     O_R   0.682330 0.500040 0.617070 -0.486112
O22   O     O_R   0.682290 0.500000 0.382930 -0.499652
O23   O     O_2   0.690367 0.051060 0.656681 -0.252937
S1    S     S_3+6 0.598868 0.938146 0.675565 0.048435
S2    S     S_3+6 0.311574 0.301933 0.830186 0.110909
S3    S     S_3+6 0.351127 0.271765 0.149156 0.110414
S4    S     S_3+6 0.152069 0.701304 0.720653 0.040941
S5    S     S_3+6 0.125515 0.593421 0.203216 0.033846

loop_
_geom_bond_atom_site_label_1
_geom_bond_atom_site_label_2
_ccdc_geom_bond_type
O16   S5    S    
O13   S4    S    
C2    C18   S    
Cu1   O19   S    
Cu1   Cu2   S    
Cu1   N1    S    
H13   O13   S    
O11   S4    D    
C7    C11   S    
O8    S3    D    
H14   N6    S    
C7    H25   S    
C3    O17   A    
C5    C11   S    
H7    O3    S    
C9    H2    S    
H18   N7    S    
H22   N1    S    
C5    O22   A    
C9    C13   S    
C1    O1    A    
O6    S2    S    
C14   H19   S    
C16   C17   D    
C8    S4    S    
C9    C10   S    
H24   N2    S    
Cu1   O1    S    
C15   S1    S    
H10   N5    S    
C12   H12   S    
Cu2   O18   S    
C18   N1    D    
O7    S3    D    
C17   H21   S    
H9    O9    S    
H4    N3    S    
O5    S2    D    
O10   S4    D    
Cu1   O21   S    
C3    O18   A    
H6    N4    S    
H17   N7    S    
C6    H1    S    
O4    S2    D    
C9    S5    S    
Cu2   O12   S    
O23   S1    D    
C2    S3    S    
C13   N7    S    
O9    S3    S    
C8    C12   S    
Cu2   O22   S    
C16   H20   S    
O2    S1    D    
O3    S1    S    
C6    H23   S    
H15   N6    S    
C14   C16   S    
Cu1   O17   S    
H11   N5    S    
C1    O12   A    
C4    O20   A    
C12   N6    S    
H3    N3    S    
O15   S5    D    
C7    N5    S    
C6    C10   S    
C13   N3    S    
C11   C12   S    
H16   O16   S    
C6    C7    S    
H8    O6    S    
C2    N2    D    
O14   S5    D    
C1    C17   S    
C4    C15   S    
C3    C10   S    
C11   C13   S    
C18   S2    S    
C5    O21   A    
H5    N4    S    
Cu2   N2    S    
C8    C10   S    
C14   C15   D    
Cu2   O20   S    
C8    N4    S    
C4    O19   A    
