data_str_m3_o14_o14_f0_pcu.sym.222
_audit_creation_date              2012-12-10T17:40:58-0500
_audit_creation_method            fapswitch 2.2
_symmetry_space_group_name_H-M    P1
_symmetry_Int_Tables_number       1
_space_group_crystal_system       triclinic
_cell_length_a                    14.877167
_cell_length_b                    15.268344
_cell_length_c                    9.927375
_cell_angle_alpha                 89.707429
_cell_angle_beta                  89.864939
_cell_angle_gamma                 89.620569
_cell_volume                      2254.91535604

loop_
_atom_site_label
_atom_site_type_symbol
_atom_type_description
_atom_site_fract_x
_atom_site_fract_y
_atom_site_fract_z
_atom_type_partial_charge
C1    C     C_R   0.383609 0.877345 0.500735 0.905333
C2    C     C_R   0.380528 0.119676 0.500053 0.886266
C3    C     C_R   0.883593 0.377358 0.500728 0.905326
C4    C     C_R   0.880555 0.619703 0.500051 0.886140
C5    C     C_R   0.227508 0.164469 0.505042 -0.320727
C6    C     C_R   0.253646 0.811002 0.408907 -0.332503
C7    C     C_R   0.727559 0.664509 0.505743 -0.320494
C8    C     C_R   0.753465 0.311168 0.409126 -0.332560
C9    C     C_R   0.662127 0.728509 0.501566 0.524872
C10   C     C_R   0.690649 0.246088 0.403230 0.497425
C11   C     C_R   0.162086 0.228489 0.500882 0.524656
C12   C     C_R   0.190849 0.745914 0.403000 0.497384
C13   C     C_R   0.688345 0.816240 0.496943 -0.211180
C14   C     C_R   0.694850 0.177833 0.498369 -0.236776
C15   C     C_R   0.188332 0.316224 0.496926 -0.211074
C16   C     C_R   0.194898 0.677791 0.498380 -0.236804
C17   C     C_R   0.335720 0.000114 0.140405 -0.153150
C18   C     C_R   0.835720 0.500124 0.140405 -0.153019
C19   C     C_R   0.254790 0.999387 0.070612 -0.217597
C20   C     C_R   0.754789 0.499407 0.070611 -0.217631
C21   C     C_R   0.254774 0.999022 0.931180 -0.189524
C22   C     C_R   0.754774 0.499044 0.931179 -0.189533
C23   C     C_R   0.335689 0.999436 0.860703 -0.142104
C24   C     C_R   0.835689 0.499451 0.860702 -0.142064
C25   C     C_R   0.419052 0.999745 0.928008 0.161478
C26   C     C_R   0.919052 0.499755 0.928007 0.161542
C27   C     C_R   0.419082 0.999909 0.072516 0.173701
C28   C     C_R   0.919082 0.499917 0.072516 0.173690
C29   C     C_R   0.577403 0.000256 0.071218 -0.124867
C30   C     C_R   0.077403 0.500240 0.071220 -0.124893
C31   C     C_R   0.622653 0.116995 0.499671 0.885331
C32   C     C_R   0.619799 0.880452 0.499600 0.920631
C33   C     C_R   0.122669 0.616981 0.499673 0.885139
C34   C     C_R   0.119791 0.380443 0.499598 0.920787
C35   C     C_R   0.577361 0.000220 0.928237 -0.116119
C36   C     C_R   0.077360 0.500202 0.928240 -0.116176
C37   C     C_R   0.436782 0.299719 0.486832 -0.101317
C38   C     C_R   0.407283 0.725591 0.680389 -0.071220
C39   C     C_R   0.936769 0.799729 0.485532 -0.101651
C40   C     C_R   0.907496 0.225397 0.679832 -0.071126
C41   C     C_R   0.461567 0.387219 0.472071 -0.114868
C42   C     C_R   0.415488 0.653398 0.765732 -0.133686
C43   C     C_R   0.961518 0.887206 0.470282 -0.114944
C44   C     C_R   0.915834 0.153079 0.764899 -0.133661
C45   C     C_R   0.895596 0.951886 0.458502 -0.141265
C46   C     C_R   0.851423 0.087909 0.762880 -0.159170
C47   C     C_R   0.395674 0.451918 0.460136 -0.141312
C48   C     C_R   0.351088 0.588225 0.763706 -0.159499
C49   C     C_R   0.804928 0.929408 0.464822 -0.169756
C50   C     C_R   0.778443 0.094952 0.675945 -0.161904
C51   C     C_R   0.304991 0.429431 0.465858 -0.169842
C52   C     C_R   0.278252 0.595142 0.676486 -0.161830
C53   C     C_R   0.778943 0.841379 0.484229 0.018224
C54   C     C_R   0.767640 0.168721 0.589667 0.021367
C55   C     C_R   0.278961 0.341377 0.484806 0.018174
C56   C     C_R   0.267559 0.668799 0.589945 0.021453
C57   C     C_R   0.345164 0.275979 0.490716 0.079141
C58   C     C_R   0.333064 0.734546 0.591755 0.077895
C59   C     C_R   0.845164 0.775993 0.490063 0.079062
C60   C     C_R   0.833151 0.234462 0.591467 0.078187
C61   C     C_R   0.317306 0.188356 0.500153 -0.153034
C62   C     C_R   0.323008 0.806082 0.501958 -0.173753
C63   C     C_R   0.817338 0.688388 0.500146 -0.153152
C64   C     C_R   0.822970 0.306115 0.501932 -0.173541
H1    H     H_    0.208307 0.096113 0.511408 0.143448
H2    H     H_    0.246577 0.867212 0.342464 0.161658
H3    H     H_    0.708376 0.596169 0.512606 0.143527
H4    H     H_    0.746312 0.367472 0.342886 0.161465
H5    H     H_    0.191657 0.998687 0.877081 0.150077
H6    H     H_    0.691657 0.498712 0.877079 0.150100
H7    H     H_    0.330089 0.999666 0.753887 0.203233
H8    H     H_    0.830089 0.499673 0.753886 0.203201
H9    H     H_    0.640660 0.000244 0.874571 0.140156
H10   H     H_    0.140660 0.500206 0.874580 0.140063
H11   H     H_    0.489418 0.251033 0.495720 0.158470
H12   H     H_    0.461333 0.772192 0.683210 0.193319
H13   H     H_    0.989423 0.751058 0.494322 0.158737
H14   H     H_    0.961527 0.272025 0.682640 0.192981
H15   H     H_    0.531951 0.404740 0.468800 0.149415
H16   H     H_    0.472854 0.647382 0.832118 0.137120
H17   H     H_    0.031893 0.904722 0.466541 0.149574
H18   H     H_    0.973299 0.146972 0.831076 0.137031
H19   H     H_    0.914645 0.019629 0.444991 0.146712
H20   H     H_    0.858723 0.030885 0.827289 0.137953
H21   H     H_    0.414753 0.519678 0.446966 0.146856
H22   H     H_    0.358296 0.531287 0.828316 0.137914
H23   H     H_    0.755584 0.981064 0.453039 0.117152
H24   H     H_    0.733174 0.040166 0.674974 0.155431
H25   H     H_    0.255672 0.481096 0.453934 0.116976
H26   H     H_    0.233027 0.540328 0.675509 0.155567
H27   H     H_    0.640713 0.000483 0.124610 0.141915
H28   H     H_    0.140713 0.500454 0.124611 0.141858
H29   H     H_    0.330104 0.001027 0.247188 0.197481
H30   H     H_    0.830103 0.501029 0.247188 0.197485
H31   H     H_    0.191699 0.999297 0.125257 0.145283
H32   H     H_    0.691698 0.499319 0.125256 0.145305
N1    N     N_R   0.498810 0.000000 0.142780 -0.120197
N2    N     N_R   0.998810 0.500000 0.142780 -0.120164
N3    N     N_R   0.498740 0.000000 0.857170 -0.123288
N4    N     N_R   0.998740 0.500000 0.857170 -0.123249
O1    O     O_R   0.408390 0.908380 0.614690 -0.657753
O2    O     O_R   0.408390 0.091620 0.614690 -0.632603
O3    O     O_R   0.908390 0.408380 0.614690 -0.657757
O4    O     O_R   0.908390 0.591620 0.614690 -0.632474
O5    O     O_R   0.408370 0.908380 0.385360 -0.638007
O6    O     O_R   0.408370 0.091620 0.385360 -0.622121
O7    O     O_R   0.908370 0.408380 0.385360 -0.637834
O8    O     O_R   0.908370 0.591620 0.385360 -0.622265
O9    O     O_R   0.591620 0.091610 0.614640 -0.631934
O10   O     O_R   0.591620 0.908390 0.614640 -0.628346
O11   O     O_R   0.091620 0.591610 0.614640 -0.631893
O12   O     O_R   0.091620 0.408390 0.614640 -0.628570
O13   O     O_R   0.591610 0.091610 0.385310 -0.579581
O14   O     O_R   0.591610 0.908390 0.385310 -0.627348
O15   O     O_R   0.091610 0.591610 0.385310 -0.579438
O16   O     O_R   0.091610 0.408390 0.385310 -0.627157
Zn1   Zn    Zn3+2 0.500010 0.000000 0.653130 0.923966
Zn2   Zn    Zn3+2 0.000010 0.500000 0.653130 0.923956
Zn3   Zn    Zn3+2 0.499980 0.000000 0.346870 0.944250
Zn4   Zn    Zn3+2 0.999980 0.500000 0.346870 0.944372
O17   O     O_3   0.572412 0.705911 0.508076 -0.633670
C65   C     C_3   0.544419 0.679099 0.379173 -0.342952
H33   H     H_    0.557519 0.730367 0.301464 0.180686
H34   H     H_    0.470793 0.668342 0.381875 0.189120
H35   H     H_    0.577098 0.616171 0.350227 0.159432
O18   O     O_3   0.618753 0.254327 0.315302 -0.614527
C66   C     C_3   0.649455 0.241998 0.182033 -0.251698
H36   H     H_    0.590182 0.236893 0.115008 0.192500
H37   H     H_    0.688927 0.180112 0.171643 0.153166
H38   H     H_    0.689671 0.298786 0.146732 0.154856
O19   O     O_3   0.072343 0.205912 0.506839 -0.633706
C67   C     C_3   0.044681 0.179073 0.377791 -0.342175
H39   H     H_    0.058134 0.230245 0.300083 0.180544
H40   H     H_    0.971019 0.168476 0.380007 0.189043
H41   H     H_    0.077308 0.116063 0.349188 0.159246
O20   O     O_3   0.119105 0.754043 0.314780 -0.614601
C68   C     C_3   0.150023 0.741463 0.181681 -0.251748
H42   H     H_    0.090850 0.736270 0.114472 0.192585
H43   H     H_    0.189483 0.679532 0.171693 0.153042
H44   H     H_    0.190333 0.798179 0.146294 0.154954

loop_
_geom_bond_atom_site_label_1
_geom_bond_atom_site_label_2
_ccdc_geom_bond_type
C58   C62   A    
C42   H16   S    
O18   C66   S    
C40   C60   A    
O6    Zn3   S    
C34   O12   A    
C49   H23   S    
C13   C32   S    
C52   H26   S    
C14   C31   S    
C1    C62   S    
C66   H37   S    
C53   C59   A    
O9    Zn1   S    
C54   C60   A    
C3    C64   S    
C3    O3    A    
C68   H43   S    
C4    C63   S    
C50   C54   A    
C6    H2    S    
C32   O10   A    
O11   Zn2   S    
C39   H13   S    
C22   C24   A    
C19   C21   A    
C24   C26   A    
C5    C11   A    
C44   H18   S    
O8    Zn4   S    
C6    C12   A    
C2    O2    A    
C34   O16   A    
C18   C20   A    
C9    C13   A    
O13   Zn3   S    
C11   C15   A    
C25   N3    A    
C35   H9    S    
C12   C16   A    
C67   H39   S    
C9    O17   S    
C40   C44   A    
C33   O11   A    
C18   H30   S    
C15   C34   S    
O4    Zn2   S    
O14   Zn3   S    
C2    C61   S    
C50   H24   S    
C37   H11   S    
C38   C58   A    
C38   H12   S    
C37   C41   A    
C45   H19   S    
C35   N3    A    
O10   Zn1   S    
C22   H6    S    
C44   C46   A    
C46   C50   A    
C13   C53   A    
C41   C47   A    
C68   H44   S    
C33   O15   A    
C17   C27   A    
C23   H7    S    
C18   C28   A    
C5    H1    S    
C10   C14   A    
C39   C43   A    
C3    O7    A    
C2    O6    A    
O16   Zn4   S    
C21   H5    S    
C15   C55   A    
N1    Zn3   S    
C16   C56   A    
C16   C33   S    
N3    Zn1   S    
C4    O8    A    
C47   H21   S    
C45   C49   A    
C39   C59   A    
C31   O9    A    
C5    C61   A    
C36   N4    A    
C42   C48   A    
C57   C61   A    
C43   C45   A    
C7    C63   A    
O17   C65   S    
O2    Zn1   S    
C36   H10   S    
C8    C64   A    
C67   H40   S    
C46   H20   S    
C40   H14   S    
C30   H28   S    
C14   C54   A    
C20   C22   A    
C8    H4    S    
C21   C23   A    
C43   H17   S    
C48   H22   S    
O3    Zn2   S    
N4    Zn2   S    
C65   H34   S    
O19   C67   S    
C1    O1    A    
O7    Zn4   S    
C29   H27   S    
C19   H31   S    
C24   H8    S    
C28   N2    A    
C7    C9    A    
C29   C35   A    
C27   N1    A    
C59   C63   A    
O20   C68   S    
C11   O19   S    
C41   H15   S    
C47   C51   A    
N2    Zn4   S    
C66   H36   S    
C29   N1    A    
C25   C27   A    
C68   H42   S    
C30   N2    A    
C26   C28   A    
C30   C36   A    
C60   C64   A    
O1    Zn1   S    
C6    C62   A    
C65   H35   S    
C55   C57   A    
C66   H38   S    
C51   H25   S    
O12   Zn2   S    
C67   H41   S    
C49   C53   A    
C4    O4    A    
C17   C19   A    
C56   C58   A    
C51   C55   A    
C23   C25   A    
C20   H32   S    
C7    H3    S    
C38   C42   A    
C48   C52   A    
C17   H29   S    
C8    C10   A    
O15   Zn4   S    
C12   O20   S    
C26   N4    A    
O5    Zn3   S    
C32   O14   A    
C65   H33   S    
C10   O18   S    
C31   O13   A    
C37   C57   A    
C52   C56   A    
C1    O5    A    
