data_str_m4_o4_o15_f0_acs.sym.39
_audit_creation_date              2012-12-11T15:44:57-0500
_audit_creation_method            fapswitch 2.2
_symmetry_space_group_name_H-M    P1
_symmetry_Int_Tables_number       1
_space_group_crystal_system       triclinic
_cell_length_a                    19.019175
_cell_length_b                    10.92485
_cell_length_c                    18.74404
_cell_angle_alpha                 90.298273
_cell_angle_beta                  90.217975
_cell_angle_gamma                 89.758173
_cell_volume                      3894.55193483

loop_
_atom_site_label
_atom_site_type_symbol
_atom_type_description
_atom_site_fract_x
_atom_site_fract_y
_atom_site_fract_z
_atom_type_partial_charge
C1    C     C_R   0.759993 0.535499 0.646572 0.530327
C2    C     C_R   0.173874 0.088297 0.551987 -0.161505
C3    C     C_R   0.478372 0.950394 0.969545 -0.046664
C4    C     C_R   0.968361 0.231330 0.971826 0.345707
C5    C     C_R   0.972494 0.234322 0.046583 0.346302
C6    C     C_R   0.468361 0.731330 0.971826 0.345707
C7    C     C_R   0.472494 0.734322 0.046583 0.346301
C8    C     C_3   0.029816 0.564594 0.039016 -0.252187
C9    C     C_3   0.022688 0.560633 0.958807 -0.267971
C10   C     C_3   0.529815 0.064594 0.039016 -0.252188
C11   C     C_3   0.522688 0.060633 0.958807 -0.267971
C12   C     C_R   0.761055 0.532062 0.852497 0.552048
C13   C     C_R   0.218543 0.509379 0.479688 -0.126784
C14   C     C_R   0.240004 0.533220 0.148091 0.545775
C15   C     C_R   0.261055 0.032062 0.852497 0.552048
C16   C     C_R   0.740004 0.033220 0.148091 0.545775
C17   C     C_R   0.773146 0.128471 0.854189 0.553422
C18   C     C_R   0.227297 0.125782 0.146718 0.545200
C19   C     C_R   0.273146 0.628471 0.854189 0.553422
C20   C     C_R   0.727297 0.625782 0.146718 0.545200
C21   C     C_R   0.965721 0.346815 0.856379 0.567837
C22   C     C_R   0.027624 0.347334 0.147937 0.574505
C23   C     C_R   0.465721 0.846815 0.856379 0.567837
C24   C     C_R   0.673873 0.588284 0.551984 -0.161485
C25   C     C_R   0.527624 0.847334 0.147937 0.574506
C26   C     C_R   0.747717 0.079142 0.424588 0.033463
C27   C     C_R   0.240564 0.107024 0.583406 0.003804
C28   C     C_R   0.247716 0.579131 0.424589 0.033484
C29   C     C_R   0.740561 0.607018 0.583404 0.003804
C30   C     C_R   0.797273 0.168435 0.440538 0.011519
C31   C     C_R   0.289185 0.176485 0.545416 0.012268
C32   C     C_R   0.297235 0.668475 0.440537 0.011490
C33   C     C_R   0.789176 0.676492 0.545418 0.012266
C34   C     C_R   0.810777 0.198940 0.510963 0.013104
C35   C     C_3   0.797980 0.299250 0.417879 -0.278026
C36   C     C_R   0.277692 0.202365 0.473923 0.025219
C37   C     C_R   0.310737 0.698985 0.510963 0.013067
C38   C     C_R   0.777682 0.702384 0.473926 0.025215
C39   C     C_3   0.366220 0.159237 0.534663 -0.256067
C40   C     C_3   0.297875 0.799280 0.417888 -0.278039
C41   C     C_3   0.866210 0.659260 0.534665 -0.256074
C42   C     C_3   0.812537 0.332285 0.495114 -0.282299
C43   C     C_3   0.353302 0.184206 0.456052 -0.262325
C44   C     C_3   0.312423 0.832324 0.495122 -0.282295
C45   C     C_R   0.239229 0.535011 0.353187 0.537942
C46   C     C_3   0.853291 0.684253 0.456054 -0.262328
C47   C     C_R   0.776526 0.138666 0.566097 0.033388
C48   C     C_R   0.217152 0.161501 0.438421 -0.000791
C49   C     C_R   0.276522 0.638663 0.566097 0.033396
C50   C     C_R   0.717146 0.661512 0.438422 -0.000797
C51   C     C_R   0.003725 0.347107 0.429023 -0.045485
C52   C     C_R   0.010158 0.329445 0.579045 -0.041059
C53   C     C_R   0.503723 0.847114 0.429022 -0.045459
C54   C     C_R   0.510156 0.829446 0.579044 -0.041043
C55   C     C_R   0.968169 0.130660 0.422084 -0.086244
C56   C     C_R   0.259993 0.035501 0.646573 0.530326
C57   C     C_R   0.992843 0.105092 0.567622 -0.083956
C58   C     C_R   0.468153 0.630675 0.422081 -0.086249
C59   C     C_R   0.492834 0.605095 0.567617 -0.083961
C60   C     C_R   0.961059 0.016797 0.454024 -0.120284
C61   C     C_R   0.974781 0.003443 0.526385 -0.132096
C62   C     C_R   0.461034 0.516813 0.454022 -0.120281
C63   C     C_R   0.474762 0.503452 0.526381 -0.132091
C64   C     C_R   0.997619 0.222949 0.537009 0.007546
C65   C     C_R   0.990128 0.233784 0.462119 -0.009774
C66   C     C_R   0.497613 0.722954 0.537006 0.007556
C67   C     C_R   0.739230 0.035014 0.353186 0.537943
C68   C     C_R   0.490120 0.733793 0.462118 -0.009753
C69   C     C_R   0.031125 0.437825 0.545612 -0.000201
C70   C     C_R   0.016719 0.453197 0.472664 0.004036
C71   C     C_R   0.531124 0.937828 0.545612 -0.000208
C72   C     C_R   0.516721 0.953203 0.472664 0.004039
C73   C     C_R   0.791508 0.170950 0.638795 0.559522
C74   C     C_R   0.208222 0.172731 0.361080 0.560173
C75   C     C_R   0.291506 0.670948 0.638794 0.559521
C76   C     C_R   0.708221 0.672735 0.361079 0.560176
C77   C     C_R   0.060848 0.535377 0.585336 -0.083390
C78   C     C_R   0.733543 0.038294 0.550486 -0.127612
C79   C     C_R   0.016344 0.575299 0.446544 -0.075634
C80   C     C_R   0.560847 0.035378 0.585338 -0.083413
C81   C     C_R   0.516350 0.075307 0.446545 -0.075636
C82   C     C_R   0.067561 0.651207 0.555710 -0.117986
C83   C     C_R   0.042901 0.672098 0.487111 -0.131925
C84   C     C_R   0.567563 0.151210 0.555714 -0.117991
C85   C     C_R   0.542906 0.172104 0.487114 -0.131927
C86   C     C_R   0.754632 0.085105 0.078361 0.008603
C87   C     C_R   0.252205 0.083572 0.923216 0.014924
C88   C     C_R   0.254632 0.585105 0.078361 0.008603
C89   C     C_R   0.162587 0.114270 0.479941 -0.166850
C90   C     C_R   0.752205 0.583572 0.923216 0.014924
C91   C     C_R   0.811516 0.037742 0.039611 0.109446
C92   C     C_R   0.186277 0.086616 0.955090 -0.004435
C93   C     C_R   0.311516 0.537742 0.039611 0.109446
C94   C     C_R   0.686276 0.586617 0.955090 -0.004435
C95   C     C_R   0.813178 0.045831 0.966753 0.118681
C96   C     C_R   0.180799 0.092339 0.027955 0.021185
C97   C     C_R   0.313178 0.545831 0.966753 0.118681
C98   C     C_R   0.680799 0.592339 0.027955 0.021185
C99   C     C_R   0.707510 0.166581 0.967654 -0.176690
C100  C     C_R   0.233569 0.538260 0.550486 -0.127613
C101  C     C_R   0.306124 0.110287 0.040768 -0.174804
C102  C     C_R   0.207510 0.666581 0.967654 -0.176690
C103  C     C_R   0.806124 0.610287 0.040768 -0.174804
C104  C     C_R   0.705514 0.158947 0.042416 -0.182928
C105  C     C_R   0.312166 0.104333 0.966380 -0.161278
C106  C     C_R   0.205514 0.658947 0.042416 -0.182928
C107  C     C_R   0.812166 0.604333 0.966380 -0.161278
C108  C     C_3   0.840941 0.910349 0.037062 -0.246958
C109  C     C_3   0.124689 0.002584 0.948660 -0.263294
C110  C     C_3   0.340941 0.410348 0.037062 -0.246958
C111  C     C_R   0.662584 0.614266 0.479939 -0.166843
C112  C     C_3   0.624689 0.502584 0.948660 -0.263294
C113  C     C_3   0.841935 0.919987 0.956778 -0.262980
C114  C     C_3   0.120560 0.005564 0.029156 -0.246482
C115  C     C_3   0.341935 0.419987 0.956778 -0.262980
C116  C     C_3   0.620560 0.505564 0.029156 -0.246482
C117  C     C_R   0.759755 0.103426 0.928906 -0.005061
C118  C     C_R   0.239905 0.097837 0.072261 0.018751
C119  C     C_R   0.259755 0.603425 0.928906 -0.005062
C120  C     C_R   0.739905 0.597837 0.072261 0.018751
C121  C     C_R   0.973759 0.343971 0.648348 0.519424
C122  C     C_R   0.718516 0.009417 0.479687 -0.126791
C123  C     C_R   0.029126 0.347879 0.354148 0.520398
C124  C     C_R   0.473759 0.843971 0.648348 0.519430
C125  C     C_R   0.529125 0.847880 0.354147 0.520396
C126  C     C_R   0.989702 0.344499 0.080855 -0.018947
C127  C     C_R   0.978004 0.340235 0.932457 -0.026266
C128  C     C_R   0.489702 0.844499 0.080855 -0.018947
C129  C     C_R   0.478004 0.840235 0.932457 -0.026266
C130  C     C_R   0.983758 0.453436 0.042055 -0.050276
C131  C     C_R   0.978372 0.450394 0.969545 -0.046664
C132  C     C_R   0.483758 0.953436 0.042055 -0.050276
Cr1   Cr    Cr6+3 0.885860 0.491680 0.749630 1.003562
Cr2   Cr    Cr6+3 0.112430 0.179310 0.249850 1.039159
Cr3   Cr    Cr6+3 0.387570 0.679310 0.750150 1.044142
Cr4   Cr    Cr6+3 0.612430 0.679310 0.249850 1.039163
Cr5   Cr    Cr6+3 0.114140 0.491680 0.250370 1.001747
Cr6   Cr    Cr6+3 0.385860 0.991680 0.749630 1.003562
Cr7   Cr    Cr6+3 0.614140 0.991680 0.250370 1.001748
Cr8   Cr    Cr6+3 0.730490 0.332970 0.748720 0.997301
Cr9   Cr    Cr6+3 0.269510 0.332970 0.251280 1.011708
Cr10  Cr    Cr6+3 0.230490 0.832970 0.748720 0.997299
Cr11  Cr    Cr6+3 0.769510 0.832970 0.251280 1.011706
Cr12  Cr    Cr6+3 0.887570 0.179310 0.750150 1.044142
F1    F     F_    0.957708 0.122686 0.938556 -0.645698
F2    F     F_    0.963859 0.130250 0.084679 -0.643512
F3    F     F_    0.457708 0.622686 0.938556 -0.645698
F4    F     F_    0.463859 0.630250 0.084679 -0.643511
H1    H     H_    0.710603 0.984639 0.592826 0.128806
H2    H     H_    0.352650 0.123988 0.073305 0.129912
H3    H     H_    0.167220 0.717702 0.940156 0.129124
H4    H     H_    0.852649 0.623988 0.073305 0.129912
H5    H     H_    0.662741 0.201965 0.071138 0.123386
H6    H     H_    0.364096 0.107029 0.943286 0.149563
H7    H     H_    0.162741 0.701965 0.071138 0.123385
H8    H     H_    0.864095 0.607029 0.943286 0.149563
H9    H     H_    0.802333 0.842951 0.056367 0.151177
H10   H     H_    0.137575 0.910685 0.927652 0.156873
H11   H     H_    0.302333 0.342951 0.056367 0.151177
H12   H     H_    0.113411 0.087644 0.455499 0.157776
H13   H     H_    0.637575 0.410685 0.927652 0.156873
H14   H     H_    0.894252 0.903977 0.061323 0.193785
H15   H     H_    0.079549 0.047680 0.921823 0.203408
H16   H     H_    0.394252 0.403977 0.061323 0.193785
H17   H     H_    0.579549 0.547680 0.921823 0.203408
H18   H     H_    0.895852 0.918937 0.934274 0.209112
H19   H     H_    0.072213 0.048818 0.049399 0.235170
H20   H     H_    0.395852 0.418937 0.934274 0.209112
H21   H     H_    0.572213 0.548817 0.049399 0.235170
H22   H     H_    0.803972 0.858047 0.929626 0.115838
H23   H     H_    0.210650 0.484583 0.592825 0.128810
H24   H     H_    0.134391 0.916909 0.054465 0.133642
H25   H     H_    0.303972 0.358046 0.929626 0.115838
H26   H     H_    0.634391 0.416909 0.054465 0.133643
H27   H     H_    0.084095 0.544189 0.056925 0.170785
H28   H     H_    0.992378 0.639218 0.936951 0.144214
H29   H     H_    0.584095 0.044189 0.056925 0.170785
H30   H     H_    0.492378 0.139218 0.936951 0.144214
H31   H     H_    0.004755 0.646521 0.063715 0.140167
H32   H     H_    0.072767 0.539264 0.930864 0.139211
H33   H     H_    0.504754 0.146521 0.063715 0.140167
H34   H     H_    0.613410 0.587638 0.455496 0.157770
H35   H     H_    0.572767 0.039264 0.930864 0.139211
H36   H     H_    0.684324 0.932773 0.467810 0.122281
H37   H     H_    0.133140 0.039946 0.580243 0.141152
H38   H     H_    0.184371 0.432713 0.467811 0.122264
H39   H     H_    0.633141 0.539927 0.580238 0.141153
H40   H     H_    0.245719 0.831872 0.398558 0.155539
H41   H     H_    0.884589 0.564842 0.545719 0.159856
H42   H     H_    0.745835 0.331919 0.398542 0.155530
H43   H     H_    0.384598 0.064822 0.545728 0.159858
H44   H     H_    0.842810 0.319493 0.381985 0.137519
H45   H     H_    0.089349 0.725673 0.586927 0.123943
H46   H     H_    0.397201 0.232034 0.561649 0.142882
H47   H     H_    0.342686 0.819592 0.381994 0.137539
H48   H     H_    0.897187 0.732051 0.561660 0.142890
H49   H     H_    0.865568 0.371233 0.503810 0.135196
H50   H     H_    0.378012 0.269684 0.437243 0.139005
H51   H     H_    0.365428 0.871356 0.503817 0.135160
H52   H     H_    0.877989 0.769747 0.437256 0.139025
H53   H     H_    0.768594 0.382900 0.520577 0.148542
H54   H     H_    0.362044 0.102563 0.421465 0.140866
H55   H     H_    0.268458 0.882855 0.520593 0.148591
H56   H     H_    0.043973 0.763564 0.465257 0.107783
H57   H     H_    0.862041 0.602626 0.421457 0.140880
H58   H     H_    0.946051 0.938670 0.422010 0.108758
H59   H     H_    0.971554 0.914137 0.550747 0.104358
H60   H     H_    0.446016 0.438691 0.422008 0.108778
H61   H     H_    0.471531 0.414146 0.550741 0.104359
H62   H     H_    0.954875 0.137567 0.366092 0.138096
H63   H     H_    0.006274 0.088988 0.622865 0.132315
H64   H     H_    0.454859 0.637587 0.366090 0.138096
H65   H     H_    0.506267 0.588987 0.622860 0.132315
H66   H     H_    0.992964 0.599364 0.395928 0.139682
H67   H     H_    0.589351 0.225675 0.586934 0.123952
H68   H     H_    0.077915 0.522223 0.639986 0.126753
H69   H     H_    0.492971 0.099377 0.395929 0.139682
H70   H     H_    0.577912 0.022222 0.639990 0.126751
H71   H     H_    0.543981 0.263573 0.465262 0.107791
H72   H     H_    0.667220 0.217701 0.940156 0.129123
O1    O     O_R   0.957020 0.451640 0.669920 -0.519289
O2    O     O_R   0.168040 0.093290 0.169870 -0.505508
O3    O     O_R   0.331960 0.593290 0.830130 -0.476035
O4    O     O_R   0.668040 0.593290 0.169870 -0.505507
O5    O     O_R   0.945600 0.250580 0.824860 -0.441158
O6    O     O_R   0.054400 0.250580 0.175140 -0.449755
O7    O     O_R   0.445600 0.750580 0.824860 -0.441158
O8    O     O_R   0.554400 0.750580 0.175140 -0.449755
O9    O     O_3   0.834640 0.334650 0.749500 -0.269360
O10   O     O_3   0.165360 0.334650 0.250500 -0.273145
O11   O     O_3   0.334640 0.834650 0.749500 -0.269357
O12   O     O_R   0.042980 0.451640 0.330080 -0.527279
O13   O     O_3   0.665360 0.834650 0.250500 -0.273147
O14   O     O_R   0.821450 0.543440 0.674610 -0.497448
O15   O     O_R   0.178550 0.543440 0.325390 -0.500041
O16   O     O_R   0.321450 0.043440 0.674610 -0.497447
O17   O     O_R   0.678550 0.043440 0.325390 -0.500040
O18   O     O_R   0.715320 0.458650 0.668100 -0.535882
O19   O     O_R   0.284680 0.458650 0.331900 -0.522934
O20   O     O_R   0.215320 0.958650 0.668100 -0.535890
O21   O     O_R   0.784680 0.958650 0.331900 -0.522931
O22   O     O_R   0.737170 0.209590 0.674530 -0.511060
O23   O     O_R   0.457020 0.951640 0.669920 -0.519291
O24   O     O_R   0.262830 0.209590 0.325470 -0.501057
O25   O     O_R   0.237170 0.709590 0.674530 -0.511060
O26   O     O_R   0.762830 0.709590 0.325470 -0.501061
O27   O     O_R   0.832710 0.092740 0.669580 -0.515528
O28   O     O_R   0.167290 0.092740 0.330420 -0.520955
O29   O     O_R   0.332710 0.592740 0.669580 -0.515533
O30   O     O_R   0.667290 0.592740 0.330420 -0.520952
O31   O     O_R   0.946290 0.250060 0.676040 -0.525143
O32   O     O_R   0.053710 0.250060 0.323960 -0.518501
O33   O     O_R   0.446290 0.750060 0.676040 -0.525143
O34   O     O_R   0.542980 0.951640 0.330080 -0.527283
O35   O     O_R   0.553710 0.750060 0.323960 -0.518499
O36   O     O_R   0.956270 0.452200 0.830470 -0.530253
O37   O     O_R   0.043730 0.452200 0.169530 -0.533971
O38   O     O_R   0.456270 0.952200 0.830470 -0.530253
O39   O     O_R   0.543730 0.952200 0.169530 -0.533970
O40   O     O_R   0.820760 0.543950 0.823440 -0.508372
O41   O     O_R   0.179240 0.543950 0.176560 -0.511887
O42   O     O_R   0.320760 0.043950 0.823440 -0.508373
O43   O     O_R   0.679240 0.043950 0.176560 -0.511886
O44   O     O_R   0.714570 0.459210 0.828640 -0.521463
O45   O     O_R   0.736470 0.210100 0.823360 -0.508946
O46   O     O_R   0.285430 0.459210 0.171360 -0.507711
O47   O     O_R   0.214570 0.959210 0.828640 -0.521462
O48   O     O_R   0.785430 0.959210 0.171360 -0.507712
O49   O     O_R   0.263530 0.210100 0.176640 -0.509244
O50   O     O_R   0.236470 0.710100 0.823360 -0.508946
O51   O     O_R   0.763530 0.710100 0.176640 -0.509244
O52   O     O_R   0.831960 0.093290 0.830130 -0.476035

loop_
_geom_bond_atom_site_label_1
_geom_bond_atom_site_label_2
_ccdc_geom_bond_type
C58   C62   A    
C46   H57   S    
C66   C68   A    
Cr6   O38   S    
C35   H44   S    
Cr7   O43   S    
Cr7   O17   S    
C51   C123  S    
C6    C7    A    
Cr4   O35   S    
C69   C77   A    
C103  C120  A    
C34   C42   S    
C3    C11   S    
Cr2   O32   S    
C80   C84   A    
C86   C104  A    
C57   H63   S    
C67   O21   A    
C8    H27   S    
C114  H19   S    
C102  C119  A    
C95   C117  A    
Cr10  O20   S    
C112  H13   S    
C76   O30   A    
Cr3   O7    S    
C30   C35   S    
C57   C64   A    
C24   H39   S    
Cr11  O51   S    
C101  C118  A    
Cr2   O6    S    
C96   C118  A    
Cr6   O11   S    
Cr12  O52   S    
C25   C128  S    
C63   H61   S    
C90   C107  A    
C41   H48   S    
C15   O47   A    
C86   C91   A    
Cr5   O12   S    
C59   C66   A    
C80   H70   S    
C92   C109  S    
C121  O31   A    
C94   C98   A    
Cr10  O11   S    
C116  H26   S    
C29   C33   A    
C101  H2    S    
C92   C96   A    
C88   C106  A    
C23   C129  S    
C9    H28   S    
Cr11  O48   S    
C51   C65   A    
C9    C131  S    
Cr2   O28   S    
C125  O35   A    
C35   C42   S    
C24   C29   A    
C82   H45   S    
C17   O45   A    
C52   C69   A    
C40   H40   S    
C16   O43   A    
Cr6   O16   S    
Cr8   O45   S    
C79   H66   S    
C73   O22   A    
Cr6   O42   S    
C23   O38   A    
Cr5   O15   S    
C8    C9    S    
Cr2   O2    S    
C20   C120  S    
Cr7   O39   S    
C5    C126  A    
Cr7   O13   S    
C44   H55   S    
Cr1   O1    S    
C41   C46   S    
C49   C75   S    
C13   C28   A    
C102  C106  A    
C2    C27   A    
C13   H38   S    
C51   C70   A    
Cr9   O49   S    
C7    C128  A    
C97   C115  S    
C18   C118  S    
C72   C81   A    
C75   O25   A    
C84   H67   S    
C17   C117  S    
C93   C110  S    
C17   O52   A    
C74   O24   A    
C122  H36   S    
C105  H6    S    
Cr4   O8    S    
C19   C119  S    
Cr8   O9    S    
Cr9   O19   S    
Cr3   O11   S    
C55   C60   A    
C100  H23   S    
C16   C86   S    
Cr4   O30   S    
C69   C70   A    
C24   C111  A    
Cr3   O29   S    
C6    C129  A    
C18   O2    A    
C109  H10   S    
C128  C132  A    
Cr1   O36   S    
C62   H60   S    
C71   C80   A    
C55   C65   A    
C81   C85   A    
C90   C94   A    
C19   O50   A    
C10   C132  S    
C53   C68   A    
Cr1   O40   S    
C22   O37   A    
C101  C105  A    
C39   H46   S    
C28   C45   S    
C110  C115  S    
Cr9   O24   S    
C38   C46   S    
C39   H43   S    
C30   C34   A    
C27   C31   A    
C3    C132  A    
C48   C74   S    
Cr12  O9    S    
C28   C32   A    
Cr7   O34   S    
C11   H35   S    
C84   C85   A    
C47   C73   S    
C109  H15   S    
C113  H18   S    
Cr11  O26   S    
C110  H16   S    
C27   C56   S    
C83   H56   S    
C98   C116  S    
C39   C43   S    
C108  H9    S    
C95   C113  S    
C121  O1    A    
Cr9   O10   S    
C108  H14   S    
C67   O17   A    
C111  H34   S    
C60   C61   A    
C108  C113  S    
C97   C119  A    
C2    C89   A    
C114  H24   S    
C45   O19   A    
C62   C63   A    
C14   O41   A    
C50   C76   S    
C99   C117  A    
C74   O28   A    
C52   C121  S    
C46   H52   S    
Cr4   O4    S    
C1    O14   A    
Cr5   O10   S    
Cr10  O25   S    
C81   H69   S    
Cr4   O13   S    
C43   H54   S    
Cr8   O18   S    
C20   O4    A    
C19   O3    A    
C11   H30   S    
C32   C37   A    
Cr3   O33   S    
C124  O23   A    
C98   C120  A    
C4    C5    A    
C55   H62   S    
C20   O51   A    
C37   C49   A    
C16   O48   A    
C9    H32   S    
C53   C125  S    
C109  C114  S    
C87   C105  A    
C54   C66   A    
C103  H4    S    
C38   C50   A    
Cr12  O31   S    
C61   H59   S    
C26   C30   A    
C35   H42   S    
C58   H64   S    
C48   C89   A    
C52   C64   A    
C104  H5    S    
Cr12  O5    S    
C79   C83   A    
C21   C127  S    
C26   C67   S    
C93   C97   A    
C112  C116  S    
C32   C40   S    
C21   O5    A    
C89   H12   S    
C15   C87   S    
C7    F4    S    
C58   C68   A    
C54   C124  S    
C88   C93   A    
C123  O12   A    
C99   C104  A    
C5    F2    S    
C4    C127  A    
C70   C79   A    
C3    C129  A    
C10   H29   S    
C91   C108  S    
C56   O20   A    
C42   H49   S    
C76   O26   A    
C45   O15   A    
C124  O33   A    
C42   H53   S    
Cr1   O9    S    
C12   C90   S    
C23   O7    A    
Cr10  O47   S    
C59   H65   S    
C57   C61   A    
C113  H22   S    
C22   O6    A    
Cr5   O37   S    
C1    O18   A    
C116  H21   S    
Cr3   O3    S    
C102  H3    S    
C25   O8    A    
C59   C63   A    
C33   C38   A    
Cr11  O21   S    
C41   H41   S    
C33   C41   S    
Cr9   O46   S    
Cr11  O13   S    
C13   C100  A    
C130  C131  A    
C85   H71   S    
C2    H37   S    
C14   C88   S    
C123  O32   A    
C115  H25   S    
C15   O42   A    
C75   O29   A    
C64   C65   A    
C49   C100  A    
C8    C130  S    
C6    F3    S    
C8    H31   S    
C60   H58   S    
C1    C29   S    
C77   C82   A    
C37   C44   S    
C4    F1    S    
C54   C71   A    
C94   C112  S    
C50   C111  A    
C31   C39   S    
C112  H17   S    
C36   C48   A    
C43   H50   S    
Cr8   O22   S    
Cr1   O14   S    
Cr2   O10   S    
C125  O34   A    
C78   C122  A    
C127  C131  A    
C96   C114  S    
C22   C126  S    
C10   C11   S    
C110  H11   S    
C107  H8    S    
C91   C95   A    
C25   O39   A    
C12   O40   A    
C40   C44   S    
C71   C72   A    
C99   H72   S    
C78   H1    S    
C44   H51   S    
C106  H7    S    
Cr8   O44   S    
Cr12  O27   S    
Cr10  O50   S    
C10   H33   S    
C126  C130  A    
C31   C36   A    
C56   O16   A    
C36   C43   S    
C103  C107  A    
C34   C47   A    
C26   C122  A    
C47   C78   A    
C82   C83   A    
C115  H20   S    
C87   C92   A    
C53   C72   A    
C73   O27   A    
C18   O49   A    
C12   O44   A    
Cr6   O23   S    
C14   O46   A    
C77   H68   S    
C21   O36   A    
C40   H47   S    
Cr5   O41   S    
