data_str_m3_o4_o14_f0_pcu.sym.50
_audit_creation_date              2012-12-10T20:28:46-0500
_audit_creation_method            fapswitch 2.2
_symmetry_space_group_name_H-M    P1
_symmetry_Int_Tables_number       1
_space_group_crystal_system       triclinic
_cell_length_a                    10.685204
_cell_length_b                    10.727509
_cell_length_c                    9.849065
_cell_angle_alpha                 89.584116
_cell_angle_beta                  88.526808
_cell_angle_gamma                 89.101854
_cell_volume                      1128.41684266

loop_
_atom_site_label
_atom_site_type_symbol
_atom_type_description
_atom_site_fract_x
_atom_site_fract_y
_atom_site_fract_z
_atom_type_partial_charge
C1    C     C_R   0.500636 0.259989 0.500130 0.885649
C2    C     C_R   0.567071 0.935362 0.389494 -0.209910
C3    C     C_R   0.515689 0.871340 0.501558 -0.136444
C4    C     C_R   0.259373 0.510414 0.502247 0.882697
C5    C     C_R   0.477226 0.935493 0.618065 0.149241
C6    C     C_3   0.355317 0.925146 0.694707 -0.028145
C7    C     C_3   0.344759 0.065664 0.685338 -0.504525
C8    C     C_R   0.404131 0.447207 0.074814 0.214139
C9    C     C_R   0.588615 0.561920 0.069026 -0.111023
C10   C     C_R   0.588449 0.562164 0.924914 -0.103193
C11   C     C_R   0.405105 0.446073 0.932268 0.195361
C12   C     C_R   0.054818 0.501091 0.630191 0.092212
C13   C     C_3   0.370949 0.312690 0.930296 -0.507305
C14   C     C_3   0.367170 0.314251 0.084111 -0.481706
C15   C     C_R   0.503310 0.739841 0.499714 0.876511
C16   C     C_R   0.739646 0.486726 0.498705 0.874681
C17   C     C_R   0.094398 0.530928 0.762562 0.214357
C18   C     C_R   0.037878 0.472945 0.876057 -0.250738
C19   C     C_R   0.934173 0.396454 0.860856 -0.025194
C20   C     C_R   0.881563 0.388651 0.732411 -0.217487
C21   C     C_R   0.936206 0.450919 0.619162 0.031929
C22   C     C_3   0.372634 0.876705 0.840054 -0.853185
C23   C     C_R   0.124567 0.521331 0.507394 -0.146526
C24   C     C_3   0.170890 0.644205 0.788168 -0.868020
C25   C     C_2   0.873827 0.334537 0.980209 0.900705
C26   C     C_R   0.064711 0.526922 0.382789 -0.203668
C27   C     C_R   0.938459 0.508330 0.378611 -0.154716
C28   C     C_R   0.873324 0.472699 0.496838 -0.107774
C29   C     C_R   0.471075 0.063099 0.615880 0.097410
C30   C     C_R   0.510143 0.127984 0.500519 -0.102117
C31   C     C_R   0.565099 0.064650 0.389390 -0.217517
H1    H     H_    0.115127 0.546538 0.288331 0.171589
H2    H     H_    0.070843 0.493033 0.976669 0.173586
H3    H     H_    0.797897 0.334488 0.720704 0.200671
H4    H     H_    0.891911 0.523697 0.283346 0.187391
H5    H     H_    0.601762 0.114519 0.301335 0.163093
H6    H     H_    0.603779 0.886116 0.301072 0.165744
H7    H     H_    0.282579 0.877047 0.637109 0.153549
H8    H     H_    0.443615 0.931331 0.893695 0.246834
H9    H     H_    0.282245 0.883636 0.897781 0.244166
H10   H     H_    0.404590 0.777996 0.838402 0.257173
H11   H     H_    0.115318 0.710879 0.852009 0.225289
H12   H     H_    0.269527 0.098748 0.617193 0.181996
H13   H     H_    0.256416 0.618209 0.842541 0.243089
H14   H     H_    0.196039 0.693236 0.692427 0.232199
H15   H     H_    0.726299 0.238736 0.056155 0.337319
H16   H     H_    0.343274 0.110718 0.785309 0.216381
H17   H     H_    0.661515 0.609787 0.121068 0.139616
H18   H     H_    0.661113 0.610416 0.868111 0.153716
H19   H     H_    0.277631 0.299283 0.885718 0.206664
H20   H     H_    0.449444 0.254436 0.888259 0.232445
H21   H     H_    0.271294 0.303698 0.128834 0.215888
H22   H     H_    0.440181 0.253296 0.129772 0.219977
N1    N     N_R   0.499160 0.499140 0.142800 -0.108091
N2    N     N_R   0.499160 0.499180 0.857150 -0.108022
O1    O     O_R   0.500020 0.316790 0.614690 -0.611193
O2    O     O_R   0.758758 0.275831 0.967294 -0.819117
O3    O     O_R   0.500000 0.316760 0.385350 -0.625856
O4    O     O_R   0.316770 0.500020 0.614690 -0.608773
O5    O     O_R   0.316760 0.499980 0.385350 -0.618966
O6    O     O_R   0.500000 0.683240 0.614650 -0.622453
O7    O     O_R   0.499980 0.683210 0.385310 -0.623040
O8    O     O_R   0.683240 0.500020 0.614650 -0.620895
O9    O     O_R   0.683230 0.499980 0.385310 -0.621836
O10   O     O_2   0.924223 0.334795 0.090311 -0.659649
Zn1   Zn    Zn3+2 0.500010 0.500020 0.653130 0.947241
Zn2   Zn    Zn3+2 0.499990 0.499980 0.346870 0.946576

loop_
_geom_bond_atom_site_label_1
_geom_bond_atom_site_label_2
_ccdc_geom_bond_type
C12   C17   A    
C16   C28   S    
C6    H7    S    
C26   H1    S    
C6    C7    S    
C7    C29   S    
C16   O8    A    
C7    H12   S    
C24   H11   S    
C9    C10   A    
C19   C20   A    
C12   C23   A    
N1    Zn2   S    
C20   H3    S    
C4    O5    A    
C2    C3    A    
C15   O6    A    
O8    Zn1   S    
C25   O10   D    
O4    Zn1   S    
C13   H20   S    
C1    O3    A    
C10   N2    A    
C11   C13   S    
C2    H6    S    
C26   C27   A    
C29   C30   A    
C25   O2    S    
O7    Zn2   S    
C8    C11   A    
C24   H13   S    
C22   H8    S    
O6    Zn1   S    
C4    O4    A    
C1    C30   S    
C15   O7    A    
C17   C18   A    
C1    O1    A    
C5    C29   A    
H15   O2    S    
C30   C31   A    
C19   C25   S    
C18   H2    S    
O1    Zn1   S    
C17   C24   S    
C24   H14   S    
C13   H19   S    
C22   H10   S    
O9    Zn2   S    
O3    Zn2   S    
N2    Zn1   S    
C11   N2    A    
C20   C21   A    
C9    H17   S    
C18   C19   A    
C23   C26   A    
C8    N1    A    
C27   C28   A    
C5    C6    S    
C4    C23   S    
C22   H9    S    
C3    C15   S    
C8    C14   S    
C9    N1    A    
C16   O9    A    
C13   C14   S    
C27   H4    S    
C31   H5    S    
C10   H18   S    
C14   H22   S    
C12   C21   A    
C21   C28   A    
C14   H21   S    
O5    Zn2   S    
C7    H16   S    
C2    C31   A    
C3    C5    A    
C6    C22   S    
