data_str_m3_o10_o17_f0_pcu.sym.124
_audit_creation_date              2012-12-10T16:52:03-0500
_audit_creation_method            fapswitch 2.2
_symmetry_space_group_name_H-M    P1
_symmetry_Int_Tables_number       1
_space_group_crystal_system       triclinic
_cell_length_a                    7.769072
_cell_length_b                    8.568139
_cell_length_c                    14.911388
_cell_angle_alpha                 90.961058
_cell_angle_beta                  85.671469
_cell_angle_gamma                 93.597902
_cell_volume                      987.744468591

loop_
_atom_site_label
_atom_site_type_symbol
_atom_type_description
_atom_site_fract_x
_atom_site_fract_y
_atom_site_fract_z
_atom_type_partial_charge
C1    C     C_R   0.545751 0.794721 0.497646 0.962747
C2    C     C_R   0.639056 0.573423 0.808830 -0.221481
C3    C     C_R   0.496175 0.503316 0.231642 -0.091553
C4    C     C_R   0.505709 0.491620 0.768094 -0.065781
C5    C     C_R   0.629642 0.585458 0.181909 -0.176290
C6    C     C_R   0.377040 0.402576 0.817259 -0.243088
C7    C     C_R   0.636118 0.581082 0.088661 0.083927
C8    C     C_R   0.377673 0.396631 0.910317 0.016808
C9    C     C_R   0.507147 0.489206 0.046199 -0.054955
C10   C     C_R   0.510229 0.484561 0.952738 -0.027658
C11   C     C_R   0.373145 0.404386 0.097640 -0.025751
C12   C     C_R   0.454246 0.205279 0.502343 0.965697
C13   C     C_R   0.643415 0.571269 0.901514 0.005119
C14   C     C_R   0.768570 0.666457 0.037688 -0.013031
C15   C     C_R   0.248084 0.307157 0.961954 -0.035848
C16   C     C_3   0.041305 0.654041 0.869122 -0.328169
C17   C     C_3   0.185582 0.073955 0.121801 -0.324503
C18   C     C_R   0.775568 0.657789 0.943660 0.469960
C19   C     C_R   0.248828 0.308509 0.055513 0.527458
C20   C     C_2   0.569891 0.958175 0.496270 -0.375775
C21   C     C_2   0.430100 0.041825 0.503696 -0.382373
C22   C     C_R   0.501714 0.498327 0.672926 0.876709
C23   C     C_R   0.498469 0.501684 0.327044 0.876975
C24   C     C_R   0.367076 0.415669 0.190771 -0.216883
H1    H     H_    0.265769 0.352611 0.232128 0.186619
H2    H     H_    0.887627 0.879528 0.057430 0.238549
H3    H     H_    0.171246 0.132689 0.877368 0.195041
H4    H     H_    0.042336 0.286949 0.885315 0.181947
H5    H     H_    0.002354 0.555723 0.823857 0.163857
H6    H     H_    0.144729 0.727310 0.831787 0.204758
H7    H     H_    0.097352 0.608073 0.929028 0.166391
H8    H     H_    0.308642 0.085303 0.155787 0.155751
H9    H     H_    0.204081 0.005553 0.058075 0.181623
H10   H     H_    0.089372 0.007350 0.167391 0.200139
H11   H     H_    0.735974 0.642190 0.767763 0.183511
H12   H     H_    0.727671 0.652651 0.216757 0.172520
H13   H     H_    0.277550 0.338789 0.781907 0.145700
H14   H     H_    0.701953 0.009135 0.489168 0.181758
H15   H     H_    0.298037 0.990865 0.510795 0.181016
H16   H     H_    0.014079 0.382911 0.432013 0.194765
H17   H     H_    0.985924 0.617042 0.568019 0.190570
H18   H     H_    0.015917 0.727879 0.064967 0.196144
N1    N     N_2   0.950330 0.457950 0.475660 -0.172715
N2    N     N_2   0.049670 0.542050 0.524340 -0.176253
N3    N     N_3   0.892421 0.766173 0.081611 -0.470703
N4    N     N_3   0.114124 0.213988 0.921415 -0.403006
O1    O     O_R   0.389250 0.738570 0.505970 -0.611845
O2    O     O_3   0.121953 0.220894 0.105933 -0.592803
O3    O     O_R   0.610750 0.261430 0.494030 -0.609839
O4    O     O_R   0.678390 0.711620 0.490370 -0.632727
O5    O     O_R   0.321610 0.288380 0.509630 -0.633299
O6    O     O_R   0.355420 0.513510 0.639950 -0.624630
O7    O     O_R   0.644580 0.486490 0.360050 -0.612689
O8    O     O_R   0.644560 0.486560 0.624350 -0.628926
O9    O     O_R   0.355440 0.513440 0.375650 -0.627377
O10   O     O_3   0.901748 0.747437 0.893778 -0.617312
Zn1   Zn    Zn3+2 0.306940 0.517990 0.510420 0.941418
Zn2   Zn    Zn3+2 0.693060 0.482010 0.489580 0.949784

loop_
_geom_bond_atom_site_label_1
_geom_bond_atom_site_label_2
_ccdc_geom_bond_type
C2    H11   S    
C2    C4    A    
N1    N2    D    
C16   O10   S    
C23   O9    A    
O5    Zn1   S    
O1    Zn1   S    
C20   H14   S    
C9    C10   A    
C14   C18   A    
C3    C23   S    
C21   H15   S    
C17   O2    S    
C18   O10   S    
N2    Zn1   S    
O7    Zn2   S    
C11   C19   A    
C12   O3    A    
C6    H13   S    
C22   O8    A    
C20   C21   D    
C16   H7    S    
C15   C19   A    
C9    C11   A    
H4    N4    S    
C3    C24   A    
C17   H9    S    
C13   C18   A    
N1    Zn2   S    
H3    N4    S    
C4    C6    A    
C23   O7    A    
C14   N3    S    
C5    C7    A    
O9    Zn1   S    
O8    Zn2   S    
C17   H8    S    
H17   N2    S    
C8    C10   A    
C17   H10   S    
C16   H6    S    
O6    Zn1   S    
O4    Zn2   S    
C5    H12   S    
C11   C24   A    
C12   O5    A    
C4    C22   S    
C24   H1    S    
C22   O6    A    
C1    O4    A    
C7    C9    A    
C2    C13   A    
C19   O2    S    
C1    O1    A    
C1    C20   S    
C6    C8    A    
C8    C15   A    
C15   N4    S    
C3    C5    A    
C16   H5    S    
C12   C21   S    
C10   C13   A    
H16   N1    S    
C7    C14   A    
O3    Zn2   S    
H2    N3    S    
H18   N3    S    
