data_str_m9_o2_o23_f0_sra.sym.64
_audit_creation_date              2012-12-11T16:31:31-0500
_audit_creation_method            fapswitch 2.2
_symmetry_space_group_name_H-M    P1
_symmetry_Int_Tables_number       1
_space_group_crystal_system       triclinic
_cell_length_a                    6.942262
_cell_length_b                    18.23054
_cell_length_c                    20.277923
_cell_angle_alpha                 68.395236
_cell_angle_beta                  90.796057
_cell_angle_gamma                 90.30285
_cell_volume                      2385.86757975

loop_
_atom_site_label
_atom_site_type_symbol
_atom_type_description
_atom_site_fract_x
_atom_site_fract_y
_atom_site_fract_z
_atom_type_partial_charge
O1    O     O_R   0.488990 0.443920 0.942160 -0.543702
O2    O     O_R   0.823840 0.406530 0.087600 -0.512824
O3    O     O_R   0.999650 0.556080 0.057840 -0.542944
C1    C     C_R   0.655505 0.379599 0.112240 0.792629
O4    O     O_R   0.818390 0.434590 0.944530 -0.511122
O5    O     O_R   0.994160 0.584350 0.913750 -0.543885
C2    C     C_R   0.649079 0.421933 0.922773 0.793795
O6    O     O_R   0.494480 0.415650 0.086250 -0.541313
O7    O     O_3   0.662600 0.549100 0.990070 -0.382968
V1    V     V_3+5 0.935320 0.490890 0.001840 1.502667
O8    O     O_R   0.324240 0.593470 0.912400 -0.543425
C3    C     C_R   0.154624 0.616364 0.884848 0.679435
O9    O     O_R   0.329690 0.565410 0.055470 -0.543446
C4    C     C_R   0.162426 0.578210 0.076965 0.714609
V2    V     V_3+5 0.435990 0.509110 0.998160 1.441976
O10   O     O_3   0.158840 0.450900 0.009930 -0.346513
C5    C     C_3   0.979916 0.663432 0.274179 0.001231
C6    C     C_3   0.336094 0.695243 0.255834 -0.350898
C7    C     C_3   0.323512 0.743538 0.304995 -0.390729
H1    H     H_    0.450831 0.719721 0.216193 0.146874
H2    H     H_    0.379152 0.633581 0.287467 0.133099
H3    H     H_    0.352703 0.703871 0.360752 0.151831
H4    H     H_    0.438373 0.789244 0.290864 0.156460
C8    C     C_1   0.113146 0.872930 0.380145 -0.195312
C9    C     C_3   0.141596 0.697403 0.216779 0.182777
C10   C     C_3   0.967848 0.715275 0.322949 0.019858
C11   C     C_3   0.122165 0.783156 0.298965 0.170293
C12   C     C_3   0.087028 0.836063 0.218664 0.002512
C13   C     C_3   0.097729 0.784997 0.171630 -0.354485
C14   C     C_1   0.119787 0.833076 0.343541 -0.097802
C15   C     C_1   0.153256 0.654337 0.166782 -0.095052
C16   C     C_1   0.157891 0.620112 0.125462 -0.194283
H5    H     H_    0.965728 0.787541 0.139731 0.160675
H6    H     H_    0.213652 0.809127 0.131959 0.137277
H7    H     H_    0.841226 0.671822 0.244027 0.101914
H8    H     H_    0.826485 0.745834 0.310779 0.137342
H9    H     H_    0.213460 0.876642 0.203787 0.111955
H10   H     H_    0.430362 0.543808 0.695671 0.104483
C17   C     C_R   0.987933 0.766221 0.873763 -0.134253
C18   C     C_R   0.906187 0.837191 0.870324 -0.123384
C19   C     C_R   0.894867 0.900561 0.806028 -0.125950
C20   C     C_R   0.965382 0.893487 0.744666 -0.141843
C21   C     C_R   0.047354 0.821884 0.746197 0.068898
C22   C     C_R   0.058720 0.756798 0.812205 0.070099
C23   C     C_R   0.120988 0.815084 0.683714 -0.187353
C24   C     C_R   0.205475 0.742926 0.687390 0.069830
C25   C     C_R   0.216940 0.677841 0.753407 0.070188
C26   C     C_R   0.143573 0.684675 0.815937 -0.184886
C27   C     C_R   0.275652 0.733464 0.625758 -0.130698
C28   C     C_R   0.356838 0.662427 0.629115 -0.123294
C29   C     C_R   0.368336 0.599064 0.693425 -0.128961
C30   C     C_R   0.298542 0.606205 0.754874 -0.145490
H11   H     H_    0.996289 0.719303 0.925357 0.103104
H12   H     H_    0.852610 0.843203 0.917966 0.108720
H13   H     H_    0.832420 0.955768 0.803728 0.108095
H14   H     H_    0.956075 0.945073 0.696339 0.110773
H15   H     H_    0.267145 0.780402 0.574174 0.103063
H16   H     H_    0.409880 0.656370 0.581411 0.109066
H17   H     H_    0.307976 0.554638 0.803216 0.105849
H18   H     H_    0.465362 0.494686 0.276782 0.118572
C31   C     C_R   0.722391 0.208514 0.132871 0.353888
C32   C     C_R   0.712753 0.129271 0.140867 -0.112230
C33   C     C_R   0.664365 0.072258 0.204994 -0.223330
C34   C     C_R   0.635382 0.092629 0.263272 -0.132136
C35   C     C_R   0.642630 0.172402 0.258170 0.041866
C36   C     C_R   0.674062 0.232936 0.190362 -0.005302
C37   C     C_R   0.612790 0.190655 0.319746 -0.162917
C38   C     C_R   0.580238 0.271730 0.312260 0.030721
C39   C     C_R   0.598934 0.331969 0.242727 0.039328
C40   C     C_R   0.649191 0.313390 0.182836 -0.165731
C41   C     C_R   0.524231 0.297854 0.368847 0.136654
C42   C     C_R   0.480447 0.377664 0.353793 -0.135203
C43   C     C_R   0.499053 0.433560 0.286869 -0.178744
C44   C     C_R   0.564912 0.412042 0.233031 -0.134040
H19   H     H_    0.744753 0.111326 0.096850 0.150084
H20   H     H_    0.652303 0.011473 0.210144 0.136348
H21   H     H_    0.601692 0.044406 0.312036 0.122895
H22   H     H_    0.432553 0.397527 0.395127 0.115651
H23   H     H_    0.585285 0.460242 0.183036 0.113458
O11   O     O_R   0.770890 0.084490 0.414040 -0.536401
O12   O     O_R   0.445980 0.065450 0.555510 -0.537046
O13   O     O_R   0.270670 0.915620 0.586180 -0.535898
C45   C     C_R   0.614859 0.076724 0.578565 0.721085
O14   O     O_R   0.441480 0.093500 0.412450 -0.535161
O15   O     O_R   0.266140 0.943870 0.442100 -0.536252
C46   C     C_R   0.609523 0.121809 0.388993 0.697735
O16   O     O_R   0.775410 0.056240 0.558120 -0.542014
O17   O     O_3   0.602660 0.950990 0.510100 -0.364929
V3    V     V_3+5 0.329740 0.009100 0.498130 1.404148
O18   O     O_R   0.936120 0.934420 0.444240 -0.536830
C47   C     C_R   0.104401 0.920158 0.424113 0.732747
O19   O     O_R   0.940610 0.906370 0.587310 -0.537794
C48   C     C_R   0.110161 0.883446 0.614880 0.695653
V4    V     V_3+5 0.829110 0.990690 0.501470 1.412025
O20   O     O_3   0.106080 0.049010 0.489880 -0.374107
C49   C     C_3   0.830066 0.247056 0.707555 -0.331752
C50   C     C_3   0.476573 0.274637 0.683345 -0.321933
C51   C     C_3   0.478106 0.323498 0.732234 -0.337912
H24   H     H_    0.868176 0.358357 0.724655 0.135863
H25   H     H_    0.865771 0.286299 0.652462 0.136167
H26   H     H_    0.331002 0.248574 0.683794 0.136209
H27   H     H_    0.505124 0.314409 0.627749 0.135322
H28   H     H_    0.507529 0.386546 0.699944 0.133052
H29   H     H_    0.333281 0.320693 0.755923 0.139760
C52   C     C_1   0.639297 0.376396 0.877173 -0.132262
C53   C     C_3   0.630316 0.208164 0.708274 0.293360
C54   C     C_3   0.831582 0.295872 0.756460 -0.328394
C55   C     C_3   0.632879 0.291713 0.791923 0.279440
C56   C     C_3   0.587269 0.203686 0.834922 -0.308963
C57   C     C_3   0.585872 0.154849 0.786045 -0.338731
C58   C     C_1   0.634993 0.338389 0.838860 -0.083833
C59   C     C_1   0.628250 0.161257 0.661569 -0.103902
C60   C     C_1   0.624165 0.122787 0.623677 -0.195685
H30   H     H_    0.694649 0.106780 0.805822 0.136421
H31   H     H_    0.442500 0.126420 0.788481 0.140178
H32   H     H_    0.696642 0.178856 0.878005 0.154871
H33   H     H_    0.943682 0.200810 0.725761 0.135884
H34   H     H_    0.945965 0.272846 0.797930 0.145539
H35   H     H_    0.444535 0.198550 0.860575 0.145773
C61   C     C_3   0.971505 0.669338 0.405515 -0.301919
C62   C     C_3   0.770297 0.660948 0.437619 -0.822117
H36   H     H_    0.716492 0.719681 0.433820 0.228484
H37   H     H_    0.666724 0.636039 0.409359 0.231942
H38   H     H_    0.776752 0.621716 0.494438 0.220373
H39   H     H_    0.042477 0.611362 0.421870 0.183538
H40   H     H_    0.059967 0.699876 0.433459 0.177973
C63   C     C_3   0.002819 0.571942 0.313133 -0.312287
C64   C     C_3   0.824244 0.529805 0.353126 -0.783204
H41   H     H_    0.828160 0.524747 0.409156 0.231763
H42   H     H_    0.690163 0.560095 0.326974 0.217580
H43   H     H_    0.821698 0.468369 0.354552 0.226154
H44   H     H_    0.029166 0.544663 0.273405 0.186184
H45   H     H_    0.131037 0.556466 0.348787 0.163322
Cl1   Cl    Cl    0.813245 0.269046 0.050541 -0.701054
C65   C     C_3   0.498395 0.247646 0.446048 -0.376034
C66   C     C_3   0.285000 0.229222 0.462421 -0.652085
H46   H     H_    0.201764 0.284643 0.450149 0.188118
H47   H     H_    0.223984 0.196841 0.430215 0.241592
H48   H     H_    0.266472 0.193880 0.519590 0.212654
H49   H     H_    0.590168 0.195610 0.463557 0.155134
H50   H     H_    0.551826 0.280266 0.479521 0.157940
C67   C     C_3   0.908724 0.892761 0.202920 -0.340377
C68   C     C_3   0.724297 0.866638 0.175273 -0.807302
H51   H     H_    0.733715 0.880101 0.117364 0.224988
H52   H     H_    0.698258 0.803038 0.202872 0.215674
H53   H     H_    0.598084 0.899025 0.183733 0.209935
H54   H     H_    0.870510 0.904655 0.250892 0.185589
H55   H     H_    0.950411 0.950880 0.162750 0.181607

loop_
_geom_bond_atom_site_label_1
_geom_bond_atom_site_label_2
_ccdc_geom_bond_type
C9    C15   S    
C68   H53   S    
C45   O16   A    
C8    C47   S    
C6    H2    S    
C19   C20   A    
C45   C60   S    
O2    C1    A    
C1    O6    A    
C23   C48   S    
C64   H41   S    
C1    C40   S    
C50   C51   S    
O15   C47   A    
C27   H15   S    
C65   C66   S    
C53   C59   S    
C23   C24   A    
C17   H11   S    
C24   C27   A    
C10   C11   S    
O13   V3    S    
C5    C10   S    
C12   C13   S    
C10   C61   S    
O5    C3    A    
C61   H40   S    
C33   H20   S    
V2    O10   S    
O16   V4    S    
C13   H5    S    
H18   C43   S    
C51   C55   S    
C55   C56   S    
C6    C7    S    
C34   H21   S    
C63   H44   S    
C19   H13   S    
C62   H38   S    
C42   H22   S    
C56   H32   S    
C20   H14   S    
O8    V2    S    
C31   C36   A    
V4    O20   S    
C25   C26   A    
C38   C39   A    
C35   C37   A    
O11   C46   A    
C54   C55   S    
C2    C52   S    
O1    V2    S    
C7    C11   S    
O7    V1    S    
C57   H30   S    
C54   H34   S    
C50   H27   S    
C3    C26   S    
C42   C43   A    
O12   V3    S    
C52   C58   T    
O13   C48   A    
O9    C4    A    
C11   C14   S    
C39   C40   A    
C6    C9    S    
C66   H48   S    
C59   C60   T    
O12   C45   A    
C31   Cl1   S    
O18   V4    S    
C43   C44   A    
C9    C13   S    
C65   H49   S    
O17   V4    S    
C29   C30   A    
C28   H16   S    
C67   H55   S    
C49   H33   S    
C7    H3    S    
C66   H47   S    
C17   C18   A    
O4    C2    A    
O15   V3    S    
C61   H39   S    
C5    C63   S    
H10   C29   S    
C13   H6    S    
C37   C38   A    
V3    O20   S    
C7    H4    S    
C21   C22   A    
C32   C33   A    
C30   H17   S    
C15   C16   T    
O19   V4    S    
C28   C29   A    
C39   C44   A    
C21   C23   A    
C62   H36   S    
C17   C22   A    
O3    C4    A    
C50   C53   S    
C10   H8    S    
C18   C19   A    
C49   C54   S    
C35   C36   A    
O6    V2    S    
C18   H12   S    
C44   H23   S    
O9    V2    S    
C32   H19   S    
C12   C67   S    
C20   C21   A    
O11   V4    S    
C63   C64   S    
O2    V1    S    
C64   H43   S    
C61   C62   S    
C56   H35   S    
C53   C57   S    
C68   H52   S    
C49   C53   S    
C24   C25   A    
C37   C46   S    
O1    C2    A    
C67   H54   S    
C63   H45   S    
C4    C16   S    
C66   H46   S    
C64   H42   S    
O5    V1    S    
O8    C3    A    
C25   C30   A    
H24   C54   S    
C55   C58   S    
C5    C9    S    
C34   C35   A    
C68   H51   S    
O7    V2    S    
O4    V1    S    
O3    V1    S    
V1    O10   S    
C56   C57   S    
C41   C65   S    
O18   C47   A    
C36   C40   A    
C12   H9    S    
C38   C41   A    
C51   H29   S    
C49   H25   S    
O19   C48   A    
C6    H1    S    
C31   C32   A    
C8    C14   T    
C62   H37   S    
C33   C34   A    
C22   C26   A    
C65   H50   S    
C41   C42   A    
O17   V3    S    
C27   C28   A    
O14   V3    S    
C11   C12   S    
C67   C68   S    
O14   C46   A    
C5    H7    S    
C57   H31   S    
C50   H26   S    
C51   H28   S    
