data_str_m12_o4_o12_f0_bcu.sym.159
_audit_creation_date              2013-03-05T15:53:27-0500
_audit_creation_method            fapswitch 2.2
_symmetry_space_group_name_H-M    P1
_symmetry_Int_Tables_number       1
_space_group_crystal_system       triclinic
_cell_length_a                    24.388994
_cell_length_b                    17.135861
_cell_length_c                    15.462187
_cell_angle_alpha                 90.000106
_cell_angle_beta                  128.809814
_cell_angle_gamma                 90.000065
_cell_volume                      5035.43218345

loop_
_atom_site_label
_atom_site_type_symbol
_atom_site_description
_atom_site_fract_x
_atom_site_fract_y
_atom_site_fract_z
_atom_type_partial_charge
C1    C     C_R   0.832794 0.892460 0.198322 -0.128947
C2    C     C_R   0.167208 0.892463 0.801676 -0.128902
C3    C     C_R   0.332791 0.392470 0.198317 -0.128974
C4    C     C_R   0.667209 0.392470 0.801683 -0.128980
H1    H     H_    0.779829 0.894470 0.171187 0.096192
H2    H     H_    0.220170 0.894475 0.828805 0.096154
H3    H     H_    0.279825 0.394485 0.171180 0.096200
H4    H     H_    0.720174 0.394485 0.828819 0.096202
N1    N     N_R   0.888400 0.921830 0.294620 -0.050430
N2    N     N_R   0.111600 0.921830 0.705380 -0.050436
N3    N     N_R   0.388400 0.421830 0.294620 -0.050427
N4    N     N_R   0.611600 0.421830 0.705380 -0.050425
C5    C     C_R   0.085368 0.855871 0.405399 -0.099527
C6    C     C_R   0.914632 0.855870 0.594601 -0.099523
C7    C     C_R   0.585369 0.355871 0.405399 -0.099498
C8    C     C_R   0.414632 0.355870 0.594601 -0.099517
H5    H     H_    0.053039 0.839653 0.319248 0.108844
H6    H     H_    0.946961 0.839653 0.680751 0.108847
H7    H     H_    0.553040 0.339653 0.319248 0.108843
H8    H     H_    0.446961 0.339653 0.680751 0.108845
N5    N     N_R   0.079940 0.922160 0.443410 -0.034789
N6    N     N_R   0.920060 0.922160 0.556590 -0.034790
N7    N     N_R   0.579940 0.422160 0.443410 -0.034793
N8    N     N_R   0.420060 0.422160 0.556590 -0.034792
C9    C     C_R   0.162287 0.855237 0.590293 -0.125820
C10   C     C_R   0.837712 0.855237 0.409706 -0.125811
C11   C     C_R   0.662288 0.355238 0.590294 -0.125823
C12   C     C_R   0.337713 0.355237 0.409705 -0.125810
H9    H     H_    0.203216 0.838436 0.675415 0.111764
H10   H     H_    0.796784 0.838436 0.324584 0.111762
H11   H     H_    0.703215 0.338437 0.675417 0.111763
H12   H     H_    0.296785 0.338436 0.324582 0.111763
N9    N     N_R   0.125650 0.922400 0.556620 -0.047100
N10   N     N_R   0.874350 0.922400 0.443380 -0.047096
N11   N     N_R   0.625650 0.422400 0.556620 -0.047099
N12   N     N_R   0.374350 0.422400 0.443380 -0.047101
C13   C     C_R   0.076624 0.893631 0.803517 -0.125799
C14   C     C_R   0.923380 0.893627 0.196488 -0.125769
C15   C     C_R   0.576623 0.393636 0.803517 -0.125775
C16   C     C_R   0.423377 0.393636 0.196483 -0.125772
H13   H     H_    0.047727 0.897386 0.835080 0.136458
H14   H     H_    0.952278 0.897380 0.164927 0.136450
H15   H     H_    0.547724 0.397390 0.835077 0.136451
H16   H     H_    0.452275 0.397390 0.164923 0.136449
N13   N     N_R   0.054230 0.922730 0.705400 -0.042232
N14   N     N_R   0.945770 0.922730 0.294600 -0.042232
N15   N     N_R   0.554230 0.422730 0.705400 -0.042237
N16   N     N_R   0.445770 0.422730 0.294600 -0.042237
C17   C     C_R   0.853070 0.874170 0.134908 0.127655
C18   C     C_R   0.146935 0.874178 0.865096 0.127675
C19   C     C_R   0.353065 0.374188 0.134900 0.127688
C20   C     C_R   0.646935 0.374188 0.865099 0.127685
C21   C     C_R   0.136873 0.812073 0.495470 0.048299
C22   C     C_R   0.863127 0.812073 0.504529 0.048286
C23   C     C_R   0.636874 0.312074 0.495471 0.048284
C24   C     C_R   0.363126 0.312073 0.504528 0.048286
C25   C     C_R   0.810875 0.100163 0.407965 -0.216575
C26   C     C_R   0.189125 0.100164 0.592035 -0.216577
C27   C     C_R   0.310877 0.600173 0.407961 -0.216552
C28   C     C_R   0.689124 0.600169 0.592037 -0.216579
H17   H     H_    0.763421 0.091403 0.323775 0.131483
H18   H     H_    0.236578 0.091405 0.676225 0.131453
H19   H     H_    0.263424 0.591419 0.323768 0.131467
H20   H     H_    0.736577 0.591412 0.676229 0.131472
N17   N     N_R   0.873790 0.077030 0.443380 -0.062324
N18   N     N_R   0.126210 0.077030 0.556620 -0.062321
N19   N     N_R   0.373790 0.577030 0.443380 -0.062325
N20   N     N_R   0.626210 0.577030 0.556620 -0.062324
C29   C     C_R   0.942977 0.142980 0.245923 -0.043252
C30   C     C_R   0.057023 0.142981 0.754077 -0.043252
C31   C     C_R   0.442950 0.642939 0.245834 -0.043348
C32   C     C_R   0.557041 0.642953 0.754136 -0.043373
H21   H     H_    0.980104 0.160038 0.233799 0.166142
H22   H     H_    0.019896 0.160038 0.766201 0.166141
H23   H     H_    0.480061 0.659968 0.233667 0.165942
H24   H     H_    0.519930 0.659982 0.766306 0.166116
N21   N     N_R   0.945200 0.076700 0.294600 -0.038193
N22   N     N_R   0.054800 0.076700 0.705400 -0.038192
N23   N     N_R   0.445200 0.576700 0.294600 -0.038182
N24   N     N_R   0.554800 0.576700 0.705400 -0.038195
C33   C     C_R   0.147980 0.142995 0.752933 -0.156589
C34   C     C_R   0.852020 0.142995 0.247067 -0.156581
C35   C     C_R   0.647990 0.642987 0.752972 -0.156491
C36   C     C_R   0.351994 0.642974 0.246984 -0.156427
H25   H     H_    0.194941 0.157451 0.763620 0.105028
H26   H     H_    0.805058 0.157451 0.236380 0.105033
H27   H     H_    0.694961 0.657446 0.763687 0.105020
H28   H     H_    0.305009 0.657429 0.236234 0.105004
N25   N     N_R   0.111030 0.077600 0.705380 -0.037717
N26   N     N_R   0.888970 0.077600 0.294620 -0.037716
N27   N     N_R   0.611030 0.577600 0.705380 -0.037722
N28   N     N_R   0.388970 0.577600 0.294620 -0.037727
C37   C     C_R   0.883893 0.102644 0.591115 0.308705
C38   C     C_R   0.116106 0.102644 0.408885 0.308703
C39   C     C_R   0.383893 0.602647 0.591113 0.308775
C40   C     C_R   0.616107 0.602646 0.408886 0.308796
N29   N     N_R   0.919490 0.077280 0.556590 -0.091495
N30   N     N_R   0.080510 0.077280 0.443410 -0.091494
N31   N     N_R   0.419490 0.577280 0.556590 -0.091490
N32   N     N_R   0.580510 0.577280 0.443410 -0.091485
Ni1   Ni    Ni4+2 0.882160 0.999430 0.370180 0.201404
Ni2   Ni    Ni4+2 0.117840 0.999430 0.629820 0.201374
Ni3   Ni    Ni4+2 0.382160 0.499430 0.370180 0.201415
Ni4   Ni    Ni4+2 0.617840 0.499430 0.629820 0.201416
Ni5   Ni    Ni4+2 0.012460 0.999430 0.370180 0.285850
Ni6   Ni    Ni4+2 0.987540 0.999430 0.629820 0.285850
Ni7   Ni    Ni4+2 0.512460 0.499430 0.370180 0.285842
Ni8   Ni    Ni4+2 0.487540 0.499430 0.629820 0.285841
C41   C     C_R   0.814499 0.117005 0.498437 -0.056461
C42   C     C_R   0.185501 0.117005 0.501563 -0.056452
C43   C     C_R   0.314500 0.617013 0.498433 -0.056476
C44   C     C_R   0.685501 0.617009 0.501566 -0.056463
C45   C     C_R   0.885797 0.186763 0.217389 -0.070498
C46   C     C_R   0.114203 0.186764 0.782611 -0.070494
C47   C     C_R   0.385754 0.686709 0.217244 -0.070462
C48   C     C_R   0.614223 0.686737 0.782688 -0.070373
C49   C     C_R   0.850663 0.718719 0.612464 0.130392
C50   C     C_R   0.149337 0.718720 0.387534 0.130391
C51   C     C_R   0.350662 0.218717 0.612461 0.130357
C52   C     C_R   0.649336 0.218713 0.387539 0.130269
C53   C     C_R   0.837877 0.737931 0.513226 0.033609
C54   C     C_R   0.162122 0.737931 0.486772 0.033598
C55   C     C_R   0.337876 0.237931 0.513223 0.033616
C56   C     C_R   0.662124 0.237931 0.486777 0.033681
C57   C     C_R   0.791975 0.690143 0.420178 -0.200740
C58   C     C_R   0.208024 0.690144 0.579819 -0.200718
C59   C     C_R   0.291973 0.190144 0.420174 -0.200745
C60   C     C_R   0.708028 0.190146 0.579828 -0.200774
H29   H     H_    0.785136 0.698496 0.344526 0.147136
H30   H     H_    0.214862 0.698496 0.655472 0.147147
H31   H     H_    0.285134 0.198498 0.344521 0.147124
H32   H     H_    0.714869 0.198502 0.655481 0.147123
C61   C     C_R   0.247607 0.138069 0.420247 -0.133269
C62   C     C_R   0.752394 0.138070 0.579754 -0.133306
C63   C     C_R   0.747609 0.638069 0.420252 -0.133211
C64   C     C_R   0.252391 0.638070 0.579745 -0.133203
H33   H     H_    0.210115 0.104765 0.346177 0.189692
H34   H     H_    0.789886 0.104767 0.653825 0.189698
H35   H     H_    0.710119 0.604763 0.346183 0.189713
H36   H     H_    0.289881 0.604764 0.653814 0.189699
C65   C     C_R   0.247349 0.137630 0.511115 0.038951
C66   C     C_R   0.752651 0.137628 0.488885 0.038982
C67   C     C_R   0.747349 0.637632 0.511119 0.038936
C68   C     C_R   0.252651 0.637634 0.488879 0.038932
C69   C     C_R   0.305740 0.169428 0.611187 0.169155
C70   C     C_R   0.694258 0.169423 0.388813 0.169205
C71   C     C_R   0.805741 0.669430 0.611190 0.169117
C72   C     C_R   0.194260 0.669433 0.388808 0.169114
C73   C     C_3   0.810524 0.715606 0.698000 -0.516791
C74   C     C_3   0.189477 0.715609 0.301999 -0.516784
C75   C     C_3   0.310524 0.215602 0.697999 -0.516811
C76   C     C_3   0.689470 0.215594 0.301995 -0.516798
C77   C     C_3   0.859662 0.769804 0.699415 -0.482504
C78   C     C_3   0.140338 0.769806 0.300584 -0.482506
C79   C     C_3   0.359662 0.269801 0.699414 -0.482490
C80   C     C_3   0.640334 0.269793 0.300581 -0.482513
H37   H     H_    0.760105 0.744107 0.666563 0.204825
H38   H     H_    0.239896 0.744111 0.333437 0.204825
H39   H     H_    0.260105 0.244102 0.666562 0.204827
H40   H     H_    0.739889 0.244094 0.333427 0.204819
H41   H     H_    0.836967 0.682651 0.776866 0.187334
H42   H     H_    0.163034 0.682654 0.223133 0.187333
H43   H     H_    0.336967 0.182645 0.776863 0.187320
H44   H     H_    0.663026 0.182634 0.223133 0.187346
H45   H     H_    0.837233 0.829284 0.668786 0.213620
H46   H     H_    0.162767 0.829287 0.331214 0.213618
H47   H     H_    0.337232 0.329281 0.668787 0.213627
H48   H     H_    0.662762 0.329275 0.331203 0.213637
H49   H     H_    0.914224 0.768027 0.779240 0.190950
H50   H     H_    0.085776 0.768029 0.220759 0.190950
H51   H     H_    0.414224 0.268024 0.779238 0.190943
H52   H     H_    0.585770 0.268014 0.220758 0.190932
H53   H     H_    0.783357 0.277832 0.175311 0.113072
H54   H     H_    0.216642 0.277834 0.824686 0.113071
H55   H     H_    0.283529 0.777996 0.175537 0.113021
H56   H     H_    0.716542 0.777923 0.824545 0.113097
H57   H     H_    0.287257 0.878857 0.010975 0.154536
H58   H     H_    0.712749 0.878844 0.988998 0.154607
H59   H     H_    0.787270 0.378810 0.011015 0.154782
H60   H     H_    0.212730 0.378811 0.988984 0.154781
C81   C     C_2   0.192874 0.847472 0.980476 -0.219487
C82   C     C_2   0.807140 0.847454 0.019533 -0.219562
C83   C     C_2   0.692862 0.347479 0.980474 -0.219571
C84   C     C_2   0.307138 0.347480 0.019525 -0.219575
C85   C     C_2   0.262909 0.849538 0.041342 -0.038901
C86   C     C_2   0.737104 0.849520 0.958648 -0.038712
C87   C     C_2   0.762900 0.349511 0.041359 -0.039016
C88   C     C_2   0.237100 0.349512 0.958640 -0.039007
C89   C     C_2   0.863110 0.262818 0.160074 0.541841
C90   C     C_2   0.136889 0.262819 0.839926 0.541840
C91   C     C_2   0.363025 0.762699 0.159768 0.541612
C92   C     C_2   0.636931 0.762762 0.840083 0.541751
C93   C     C_2   0.805885 0.297671 0.137006 -0.303595
C94   C     C_2   0.194114 0.297672 0.862993 -0.303598
C95   C     C_2   0.305933 0.797700 0.136981 -0.303255
C96   C     C_2   0.694089 0.797686 0.862999 -0.303733
H61   H     H_    0.168762 0.818438 0.011699 0.140900
H62   H     H_    0.831262 0.818419 0.988326 0.140913
H63   H     H_    0.668731 0.318472 0.011684 0.140928
H64   H     H_    0.331268 0.318472 0.988315 0.140919
O1    O     O_3   0.891139 0.288444 0.109935 -0.651455
C97   C     C_3   0.955887 0.326933 0.189282 0.211466
H65   H     H_    0.990211 0.316383 0.166232 0.167047
H66   H     H_    0.985138 0.304185 0.275576 0.065437
C98   C     C_3   0.944148 0.414986 0.186883 -0.339528
H67   H     H_    0.916074 0.437254 0.101088 0.209472
H68   H     H_    0.911082 0.426684 0.212026 0.200880
C99   C     C_3   0.013795 0.458501 0.265344 -0.976631
H69   H     H_    0.042267 0.438022 0.351991 0.266933
H70   H     H_    0.003511 0.522009 0.261851 0.268551
H71   H     H_    0.047352 0.449027 0.240632 0.268031
O2    O     O_3   0.108862 0.288444 0.890066 -0.651455
C100  C     C_3   0.044113 0.326932 0.810719 0.211464
H72   H     H_    0.009788 0.316377 0.833767 0.167048
H73   H     H_    0.014864 0.304187 0.724423 0.065436
C101  C     C_3   0.055851 0.414986 0.813125 -0.339521
H74   H     H_    0.083923 0.437251 0.898921 0.209472
H75   H     H_    0.088919 0.426688 0.787986 0.200881
C102  C     C_3   0.986203 0.458500 0.734663 -0.976633
H76   H     H_    0.957734 0.438025 0.648015 0.266933
H77   H     H_    0.996486 0.522009 0.738162 0.268551
H78   H     H_    0.952644 0.449021 0.759369 0.268032
O3    O     O_3   0.390826 0.788071 0.109177 -0.651481
C103  C     C_3   0.455685 0.826493 0.188141 0.211220
H79   H     H_    0.490071 0.814979 0.165430 0.167472
H80   H     H_    0.484784 0.804503 0.274774 0.065038
C104  C     C_3   0.444189 0.914703 0.184379 -0.338389
H81   H     H_    0.416191 0.936200 0.098242 0.209491
H82   H     H_    0.411125 0.927348 0.209290 0.200580
C105  C     C_3   0.513949 0.958142 0.262194 -0.976640
H83   H     H_    0.542309 0.938529 0.349179 0.266957
H84   H     H_    0.503844 0.021789 0.257580 0.268322
H85   H     H_    0.547540 0.947609 0.237763 0.268151
O4    O     O_3   0.609060 0.788240 0.890526 -0.651477
C106  C     C_3   0.544270 0.826743 0.811449 0.211649
H86   H     H_    0.510123 0.816158 0.834828 0.167295
H87   H     H_    0.514851 0.804023 0.725106 0.065335
C107  C     C_3   0.555975 0.914800 0.813804 -0.339793
H88   H     H_    0.584510 0.936989 0.899759 0.209510
H89   H     H_    0.588598 0.926538 0.787851 0.200668
C108  C     C_3   0.486272 0.958372 0.736173 -0.976294
H90   H     H_    0.457260 0.937887 0.649390 0.266917
H91   H     H_    0.496536 0.021868 0.739469 0.268463
H92   H     H_    0.453225 0.948964 0.761850 0.267971
N33   N     N_R   0.909191 0.093465 0.702565 0.204996
O5    O     O_R   0.946604 0.032478 0.759385 -0.426847
O6    O     O_R   0.909078 0.153110 0.754542 -0.429223
N34   N     N_R   0.090809 0.093465 0.297435 0.204996
O7    O     O_R   0.053395 0.032479 0.240614 -0.426848
O8    O     O_R   0.090923 0.153110 0.245459 -0.429220
N35   N     N_R   0.409185 0.593463 0.702559 0.204983
O9    O     O_R   0.446588 0.532469 0.759372 -0.426874
O10   O     O_R   0.409075 0.653107 0.754541 -0.429365
N36   N     N_R   0.590815 0.593459 0.297441 0.204981
O11   O     O_R   0.553415 0.532462 0.240631 -0.426867
O12   O     O_R   0.590924 0.653101 0.245456 -0.429603

loop_
_geom_bond_atom_site_label_1
_geom_bond_atom_site_label_2
_geom_bond_distance
_ccdc_geom_bond_type
C26   H18   1.080787 S    
C35   H27   1.078563 S    
C76   H40   1.112502 S    
C52   C70   1.373704 A    
N17   N29   1.364141 A    
C46   C90   1.474921 S    
C91   O3    1.387622 S    
N25   Ni2   1.852049 S    
C30   N22   1.344713 A    
C77   H49   1.111920 S    
O1    C97   1.416130 S    
N18   Ni2   1.838628 S    
C29   N21   1.344714 A    
O3    C103  1.416173 S    
C82   H62   1.087336 S    
C20   C83   1.463507 S    
N17   Ni1   1.838628 S    
N27   Ni4   1.852048 S    
C32   H24   1.073891 S    
C81   H61   1.087336 S    
C103  H79   1.111176 S    
C31   N23   1.344640 A    
C12   C24   1.393487 A    
N19   Ni3   1.838628 S    
N35   O9    1.300678 A    
C14   C17   1.382621 A    
N5    Ni5   1.846082 S    
C98   H67   1.111624 S    
C30   C46   1.389637 A    
C61   H33   1.077399 S    
N31   Ni8   1.860284 S    
C40   C44   1.392282 A    
C107  C108  1.526592 S    
C29   C45   1.389639 A    
C68   C72   1.398960 A    
N8    N12   1.364143 A    
N30   Ni5   1.860281 S    
C97   H66   1.117170 S    
C4    C20   1.382720 A    
N12   Ni3   1.824802 S    
C1    H1    1.080048 S    
C92   C96   1.344563 D    
C44   C67   1.463816 S    
C86   C96   1.460125 S    
C71   C73   1.498374 S    
C101  H75   1.111153 S    
C14   H14   1.081731 S    
C3    H3    1.080048 S    
C21   C54   1.454395 S    
C66   C70   1.398964 A    
C6    H6    1.075550 S    
C11   C23   1.393486 A    
N35   O10   1.301274 A    
N16   Ni7   1.831953 S    
H59   C87   1.083991 S    
C58   H30   1.082624 S    
C59   H31   1.082621 S    
N14   Ni5   1.831951 S    
C10   C22   1.393487 A    
C52   C80   1.500725 S    
C32   N24   1.344671 A    
H57   C85   1.083968 S    
C78   H50   1.111920 S    
C105  H85   1.111032 S    
C108  H90   1.111007 S    
C82   C86   1.337731 D    
C25   H17   1.080786 S    
C49   C53   1.400120 A    
N36   O12   1.301276 A    
H60   C88   1.083989 S    
N28   Ni3   1.852049 S    
C27   N19   1.325979 A    
C107  H88   1.111707 S    
C64   H36   1.077398 S    
C10   N10   1.345703 A    
C25   C41   1.375872 A    
C76   C80   1.505444 S    
C79   H47   1.112500 S    
C99   H69   1.110920 S    
C84   H64   1.087338 S    
C97   C98   1.531896 S    
C1    C17   1.382748 A    
C33   C46   1.387644 A    
C30   H22   1.073906 S    
C27   C43   1.375878 A    
C106  H86   1.111073 S    
C101  C102  1.526459 S    
C29   H21   1.073906 S    
C41   C66   1.463820 S    
N8    Ni8   1.846077 S    
C75   C79   1.505447 S    
C4    N4    1.333565 A    
C2    C18   1.382736 A    
C83   C87   1.337744 D    
C4    H4    1.080049 S    
C56   C60   1.405297 A    
C47   C91   1.474843 S    
C57   C63   1.403086 A    
C34   H26   1.078541 S    
C7    N7    1.323184 A    
C15   C20   1.382622 A    
C48   C92   1.474915 S    
C58   C64   1.403083 A    
N1    N14   1.399478 A    
C8    N8    1.323184 A    
N33   O5    1.300679 A    
C87   C93   1.460120 S    
C88   C94   1.460119 S    
C106  H87   1.117154 S    
N3    N16   1.399478 A    
C2    H2    1.080045 S    
C85   C95   1.460097 S    
N4    N15   1.399475 A    
N6    N10   1.364143 A    
N34   O7    1.300680 A    
C60   H32   1.082621 S    
H55   C95   1.084560 S    
C26   N18   1.325988 A    
C5    C21   1.374014 A    
C100  H73   1.117171 S    
N22   N25   1.371671 A    
C9    H9    1.079252 S    
C74   H42   1.111786 S    
C107  H89   1.111196 S    
N21   N26   1.371676 A    
N10   Ni1   1.824802 S    
N34   O8    1.301273 A    
C31   C47   1.389576 A    
N9    Ni2   1.824797 S    
C39   C43   1.392284 A    
C24   C55   1.454395 S    
N20   Ni4   1.838627 S    
N2    Ni2   1.838269 S    
C1    N1    1.333566 A    
C101  H74   1.111622 S    
N11   Ni4   1.824798 S    
C97   H65   1.111073 S    
C39   N35   1.429086 S    
C102  H76   1.110920 S    
C3    C19   1.382721 A    
C15   H15   1.081730 S    
C89   O1    1.387596 S    
C100  H72   1.111075 S    
C11   H11   1.079253 S    
C80   H52   1.111921 S    
C83   H63   1.087339 S    
C84   C88   1.337744 D    
C108  H91   1.110466 S    
C75   H39   1.112501 S    
C54   C58   1.405294 A    
C42   C65   1.463816 S    
C7    H7    1.075552 S    
C8    C24   1.374021 A    
N26   Ni1   1.852049 S    
C53   C57   1.405294 A    
N36   O11   1.300679 A    
C28   C44   1.375877 A    
C60   C62   1.403088 A    
C63   C67   1.408995 A    
C62   C66   1.408991 A    
C55   C59   1.405297 A    
C104  H81   1.111704 S    
C12   H12   1.079254 S    
C8    H8    1.075551 S    
N7    Ni7   1.846082 S    
N19   N31   1.364141 A    
N2    N13   1.399475 A    
N24   Ni8   1.845774 S    
N23   Ni7   1.845778 S    
C49   C71   1.373701 A    
C69   C75   1.498375 S    
H56   C96   1.084533 S    
C105  H84   1.110545 S    
C28   N20   1.325983 A    
N23   N28   1.371676 A    
C76   H44   1.111786 S    
C37   N33   1.429089 S    
C43   C68   1.463816 S    
C70   C76   1.498375 S    
N29   Ni6   1.860285 S    
C72   C74   1.498374 S    
C99   H70   1.110483 S    
C6    C22   1.374018 A    
C22   C53   1.454395 S    
C19   C84   1.463507 S    
C36   C47   1.387684 A    
C75   H43   1.111786 S    
N33   O6    1.301273 A    
C57   H29   1.082621 S    
H53   C93   1.084513 S    
C6    N6    1.323182 A    
C106  C107  1.531900 S    
C51   C79   1.500726 S    
C18   C81   1.463555 S    
C73   H41   1.111786 S    
O4    C106  1.416139 S    
C13   N13   1.345328 A    
C2    N2    1.333544 A    
C103  C104  1.531774 S    
C37   N29   1.344815 A    
C67   C71   1.398961 A    
C35   N27   1.333432 A    
N13   Ni6   1.831960 S    
C15   N15   1.345303 A    
C98   C99   1.526459 S    
C16   N16   1.345302 A    
C100  C101  1.531895 S    
C23   C56   1.454400 S    
N32   Ni7   1.860281 S    
C81   C85   1.337744 D    
C74   H38   1.112501 S    
H54   C94   1.084516 S    
C104  H82   1.111250 S    
C26   C42   1.375874 A    
C27   H19   1.080785 S    
N20   N32   1.364143 A    
C79   H51   1.111920 S    
C59   C61   1.403087 A    
C34   C45   1.387645 A    
C25   N17   1.325990 A    
C103  H80   1.117306 S    
C62   H34   1.077399 S    
N4    Ni4   1.838269 S    
C90   O2    1.387596 S    
C51   C55   1.400120 A    
C51   C69   1.373700 A    
C16   C19   1.382620 A    
C45   C89   1.474920 S    
C32   C48   1.389612 A    
C61   C65   1.408990 A    
C34   N26   1.333386 A    
C5    H5    1.075548 S    
C28   H20   1.080786 S    
C63   H35   1.077397 S    
C11   N11   1.345700 A    
C108  H92   1.110992 S    
N24   N27   1.371671 A    
N21   Ni5   1.845778 S    
C37   C41   1.392278 A    
C49   C77   1.500728 S    
C33   N25   1.333386 A    
C64   C68   1.408994 A    
N6    Ni6   1.846076 S    
C5    N5    1.323182 A    
C102  H78   1.110918 S    
C31   H23   1.073882 S    
C13   C18   1.382641 A    
N18   N30   1.364143 A    
C36   H28   1.078586 S    
C73   H37   1.112502 S    
C92   O4    1.387631 S    
C99   H71   1.110919 S    
C50   C54   1.400121 A    
C73   C77   1.505444 S    
C40   N32   1.344815 A    
C50   C72   1.373699 A    
C65   C69   1.398962 A    
C38   C42   1.392276 A    
N22   Ni6   1.845775 S    
C50   C78   1.500725 S    
C39   N31   1.344816 A    
C102  H77   1.110482 S    
C13   H13   1.081728 S    
C105  H83   1.110968 S    
N7    N11   1.364146 A    
C91   C95   1.344526 D    
C14   N14   1.345316 A    
C3    N3    1.333565 A    
C90   C94   1.344545 D    
C40   N36   1.429087 S    
C17   C82   1.463545 S    
H58   C86   1.083965 S    
C89   C93   1.344546 D    
C16   H16   1.081731 S    
C104  C105  1.526595 S    
N5    N9    1.364146 A    
O2    C100  1.416128 S    
C12   N12   1.345699 A    
N1    Ni1   1.838264 S    
N15   Ni8   1.831961 S    
C74   C78   1.505444 S    
C77   H45   1.112500 S    
C35   C48   1.387693 A    
C80   H48   1.112501 S    
C78   H46   1.112501 S    
N3    Ni3   1.838264 S    
C36   N28   1.333457 A    
C38   N30   1.344811 A    
C98   H68   1.111152 S    
C38   N34   1.429090 S    
C9    N9    1.345703 A    
C33   H25   1.078542 S    
C9    C21   1.393485 A    
C52   C56   1.400119 A    
C7    C23   1.374024 A    
C10   H10   1.079252 S    
