data_str_m2_o5_o28_f0_pcu.sym.89
_audit_creation_date              2013-03-05T16:35:54-0500
_audit_creation_method            fapswitch 2.2
_symmetry_space_group_name_H-M    P1
_symmetry_Int_Tables_number       1
_space_group_crystal_system       triclinic
_cell_length_a                    23.577368
_cell_length_b                    9.106399
_cell_length_c                    7.781488
_cell_angle_alpha                 89.503574
_cell_angle_beta                  90.189003
_cell_angle_gamma                 89.390575
_cell_volume                      1670.55694182

loop_
_atom_site_label
_atom_site_type_symbol
_atom_site_description
_atom_site_fract_x
_atom_site_fract_y
_atom_site_fract_z
_atom_type_partial_charge
O1    O     O_R   0.500000 0.288390 0.642760 -0.580223
O2    O     O_R   0.500000 0.711610 0.357240 -0.576955
O3    O     O_R   0.500000 0.711610 0.642760 -0.581917
O4    O     O_R   0.500000 0.288390 0.357240 -0.574300
H1    H     H_    0.947132 0.135322 0.532400 0.183409
H2    H     H_    0.053423 0.868987 0.587011 0.182937
H3    H     H_    0.950421 0.875734 0.567564 0.180510
H4    H     H_    0.050217 0.129700 0.523193 0.181187
C1    C     C_R   0.499729 0.219986 0.500464 0.836206
C2    C     C_R   0.499847 0.780029 0.499554 0.831795
O5    O     O_R   0.417880 0.500000 0.642820 -0.585693
O6    O     O_R   0.582120 0.500000 0.357180 -0.588643
O7    O     O_R   0.582120 0.500000 0.642820 -0.579168
O8    O     O_R   0.417880 0.500000 0.357180 -0.586591
C3    C     C_R   0.209323 0.493268 0.534061 0.281164
C4    C     C_R   0.791254 0.514167 0.520546 0.279274
C5    C     C_R   0.390808 0.498582 0.500079 0.782739
C6    C     C_R   0.609238 0.501415 0.500384 0.784632
Cu1   Cu    Cu3+1 0.500000 0.500000 0.669080 0.961651
Cu2   Cu    Cu3+1 0.500000 0.500000 0.330920 0.961028
H5    H     H_    0.210084 0.660694 0.337931 0.165635
H6    H     H_    0.789254 0.355571 0.318142 0.165812
H7    H     H_    0.221983 0.321010 0.721593 0.168957
H8    H     H_    0.779386 0.672567 0.721228 0.169182
C7    C     C_R   0.294975 0.592677 0.404959 0.013300
C8    C     C_R   0.704718 0.413328 0.398374 0.017643
C9    C     C_R   0.301396 0.388860 0.613041 0.019621
C10   C     C_R   0.699376 0.606994 0.615304 0.016700
C11   C     C_R   0.328443 0.492109 0.503277 -0.090421
C12   C     C_R   0.671711 0.508249 0.502925 -0.085589
C13   C     C_R   0.881870 0.640868 0.535454 0.536086
C14   C     C_R   0.118962 0.365767 0.532044 0.537580
C15   C     C_R   0.880593 0.378611 0.545492 0.534341
C16   C     C_R   0.120124 0.625728 0.571249 0.534736
N1    N     N_R   0.852408 0.511394 0.534684 -0.456223
N2    N     N_R   0.148298 0.494512 0.548292 -0.457174
C17   C     C_R   0.940026 0.372542 0.544950 -0.009608
C18   C     C_R   0.060674 0.632051 0.567539 -0.010412
C19   C     C_R   0.941203 0.639662 0.550959 -0.009570
C20   C     C_R   0.059541 0.365851 0.540549 -0.009332
C21   C     C_R   0.970442 0.504290 0.550344 -0.020539
C22   C     C_R   0.030279 0.500691 0.553473 -0.020620
C23   C     C_R   0.969617 0.238069 0.538053 -0.163316
C24   C     C_R   0.031025 0.766429 0.575597 -0.163372
C25   C     C_R   0.971947 0.770353 0.564356 -0.163305
C26   C     C_R   0.028744 0.234878 0.532804 -0.163877
C27   C     C_1   0.499590 0.065347 0.500705 -0.191722
C28   C     C_1   0.499641 0.934675 0.499446 -0.197348
C29   C     C_R   0.235862 0.588098 0.417814 -0.130277
C30   C     C_R   0.763901 0.424013 0.402013 -0.136056
C31   C     C_R   0.242423 0.395391 0.632373 -0.134342
C32   C     C_R   0.758581 0.603607 0.627969 -0.131290
N3    N     N_1   0.500000 0.500000 0.076820 -0.060201
N4    N     N_1   0.500000 0.500000 0.923180 -0.062695
O9    O     O_2   0.854114 0.770528 0.518037 -0.537715
O10   O     O_2   0.146985 0.238287 0.503913 -0.538820
O11   O     O_2   0.851296 0.252453 0.558093 -0.537687
O12   O     O_2   0.149514 0.749961 0.597592 -0.536391
C33   C     C_3   0.319992 0.706468 0.284843 -0.384678
C34   C     C_3   0.324730 0.644218 0.103341 -0.337122
C35   C     C_3   0.344052 0.759137 0.973447 -0.816043
H9    H     H_    0.311152 0.846577 0.959895 0.252612
H10   H     H_    0.384901 0.807619 0.014570 0.257889
H11   H     H_    0.350104 0.706979 0.846232 0.251439
H12   H     H_    0.355973 0.553118 0.105935 0.238958
H13   H     H_    0.283118 0.600673 0.060897 0.219526
H14   H     H_    0.292363 0.806305 0.282003 0.207510
H15   H     H_    0.362091 0.743173 0.331173 0.196356
C36   C     C_3   0.679258 0.288557 0.296901 -0.397948
C37   C     C_3   0.660570 0.164797 0.418959 -0.313155
C38   C     C_3   0.640702 0.031091 0.320159 -0.849334
H16   H     H_    0.604527 0.061365 0.234671 0.263414
H17   H     H_    0.676136 0.985895 0.242492 0.263473
H18   H     H_    0.626717 0.944802 0.411848 0.233985
H19   H     H_    0.696734 0.130897 0.503018 0.240329
H20   H     H_    0.625484 0.203513 0.502403 0.205762
H21   H     H_    0.643469 0.327613 0.215297 0.217284
H22   H     H_    0.711174 0.242892 0.206313 0.199834
C39   C     C_3   0.333307 0.264149 0.702665 -0.377834
C40   C     C_3   0.345665 0.300835 0.890630 -0.342322
C41   C     C_3   0.378684 0.177929 0.981377 -0.809562
H23   H     H_    0.352814 0.077306 0.986459 0.247671
H24   H     H_    0.419073 0.154612 0.913139 0.265399
H25   H     H_    0.388701 0.211253 0.114961 0.247393
H26   H     H_    0.371556 0.400998 0.895548 0.248783
H27   H     H_    0.305288 0.321121 0.960368 0.211199
H28   H     H_    0.307602 0.162538 0.696996 0.204857
H29   H     H_    0.373492 0.238109 0.634769 0.192044
C42   C     C_3   0.667560 0.720023 0.720697 -0.388952
C43   C     C_3   0.660515 0.667782 0.907383 -0.320413
C44   C     C_3   0.618449 0.765660 0.002655 -0.793026
H30   H     H_    0.631036 0.882375 0.990940 0.241723
H31   H     H_    0.575211 0.753521 0.947962 0.270243
H32   H     H_    0.617519 0.733813 0.140662 0.252997
H33   H     H_    0.645039 0.552956 0.911869 0.238752
H34   H     H_    0.702247 0.670480 0.974165 0.210313
H35   H     H_    0.691206 0.825122 0.719048 0.196132
H36   H     H_    0.625696 0.746940 0.662122 0.199782

loop_
_geom_bond_atom_site_label_1
_geom_bond_atom_site_label_2
_geom_bond_distance
_ccdc_geom_bond_type
H8    C32   1.083380 S    
C9    C11   1.422202 A    
C5    C11   1.472505 S    
C21   C22   1.410970 A    
C36   H21   1.108099 S    
Cu1   Cu2   2.631389 S    
H5    C29   1.083827 S    
C41   H23   1.106634 S    
C43   H33   1.111448 S    
C19   C21   1.406045 A    
N3    N4    1.195549 T    
C3    C29   1.399002 A    
C20   C26   1.404540 A    
O5    Cu1   1.946259 S    
O7    C6    1.281424 A    
C14   N2    1.374105 A    
C4    C30   1.400396 A    
C18   C22   1.405862 A    
C9    C39   1.518828 S    
C8    C30   1.400003 A    
C4    N1    1.445634 S    
C35   H10   1.111016 S    
C40   H27   1.111883 S    
C33   H14   1.112814 S    
O3    Cu1   1.936093 S    
C37   C38   1.522819 S    
C6    C12   1.474987 S    
C3    C31   1.399334 A    
C19   C25   1.404522 A    
C20   C22   1.406558 A    
H1    C23   1.081455 S    
C34   H13   1.112346 S    
C33   C34   1.530405 S    
H2    C24   1.081941 S    
O8    C5    1.283995 A    
C36   H22   1.112656 S    
C35   H9    1.109841 S    
C39   H28   1.112607 S    
C39   H29   1.110729 S    
C41   H24   1.111246 S    
C9    C31   1.399728 A    
C7    C29   1.398681 A    
C7    C11   1.419569 A    
O1    Cu1   1.939623 S    
O7    Cu1   1.947597 S    
O2    Cu2   1.939622 S    
O8    Cu2   1.947599 S    
O1    C1    1.275191 A    
C44   H30   1.109616 S    
C38   H17   1.110371 S    
C40   C41   1.523660 S    
C15   C17   1.401795 A    
C42   H35   1.112723 S    
C34   C35   1.522891 S    
C17   C23   1.404425 A    
C35   H11   1.110648 S    
C18   C24   1.404796 A    
C40   H26   1.103798 S    
C33   H15   1.110708 S    
C44   H31   1.110391 S    
H7    C31   1.083528 S    
C27   C28   1.190061 T    
O6    Cu2   1.946256 S    
C10   C42   1.515571 S    
Cu1   N4    1.977275 S    
C34   H12   1.103561 S    
C1    C27   1.408229 S    
C2    C28   1.408222 S    
C13   N1    1.374840 A    
O2    C2    1.275344 A    
H3    C25   1.081329 S    
C3    N2    1.443363 S    
C41   H25   1.110753 S    
C24   C25   1.395406 A    
O5    C5    1.279470 A    
C15   O11   1.349796 S    
C16   C18   1.402434 A    
C4    C32   1.399365 A    
Cu2   N3    1.977275 S    
C38   H18   1.110215 S    
C43   H34   1.111813 S    
H6    C30   1.083233 S    
C42   H36   1.109967 S    
C10   C12   1.421651 A    
C42   C43   1.534778 S    
C38   H16   1.110881 S    
O3    C2    1.271960 A    
C44   H32   1.110291 S    
C37   H20   1.109748 S    
C10   C32   1.399056 A    
C43   C44   1.524881 S    
C15   N1    1.375336 A    
C13   C19   1.403652 A    
C16   N2    1.374257 A    
C14   C20   1.402782 A    
C17   C21   1.405134 A    
C36   C37   1.536609 S    
C23   C26   1.394795 A    
H4    C26   1.081870 S    
C39   C40   1.530866 S    
O4    Cu2   1.936094 S    
O6    C6    1.283142 A    
C37   H19   1.112375 S    
C16   O12   1.349749 S    
C8    C36   1.517150 S    
C7    C33   1.514976 S    
C13   O9    1.349434 S    
O4    C1    1.272111 A    
C14   O10   1.349497 S    
C8    C12   1.420118 A    
