data_str_m2_o14_o22_f0_pcu.sym.121
_audit_creation_date              2013-03-05T15:51:22-0500
_audit_creation_method            fapswitch 2.2
_symmetry_space_group_name_H-M    P1
_symmetry_Int_Tables_number       1
_space_group_crystal_system       triclinic
_cell_length_a                    10.745557
_cell_length_b                    10.820341
_cell_length_c                    9.603431
_cell_angle_alpha                 90.156554
_cell_angle_beta                  89.796188
_cell_angle_gamma                 91.588502
_cell_volume                      1116.15655158

loop_
_atom_site_label
_atom_site_type_symbol
_atom_site_description
_atom_site_fract_x
_atom_site_fract_y
_atom_site_fract_z
_atom_type_partial_charge
O1    O     O_R   0.499990 0.319640 0.618810 -0.576612
O2    O     O_R   0.500000 0.319660 0.381240 -0.528573
C1    C     C_R   0.495180 0.262365 0.499567 0.866620
O3    O     O_R   0.317680 0.499970 0.618790 -0.607283
O4    O     O_R   0.317700 0.499990 0.381210 -0.569479
C2    C     C_R   0.260268 0.502775 0.500354 0.762827
Cu1   Cu    Cu3+1 0.499990 0.499990 0.640660 0.943064
Cu2   Cu    Cu3+1 0.500010 0.500010 0.359340 0.979576
O5    O     O_R   0.500000 0.680340 0.618760 -0.603672
O6    O     O_R   0.500010 0.680360 0.381190 -0.600079
O7    O     O_R   0.682300 0.500010 0.618790 -0.601935
O8    O     O_R   0.682320 0.500030 0.381210 -0.578545
C3    C     C_R   0.493362 0.736709 0.500216 0.776765
C4    C     C_R   0.740179 0.503025 0.500059 0.782715
C5    C     C_3   0.068508 0.374533 0.456006 0.060588
H1    H     H_    0.094133 0.307630 0.538627 0.160833
C6    C     C_3   0.924859 0.378471 0.449314 -0.338964
H2    H     H_    0.892954 0.363212 0.340451 0.229647
H3    H     H_    0.884198 0.302947 0.515098 0.187350
H4    H     H_    0.105446 0.464258 0.725693 0.224429
H5    H     H_    0.895191 0.456482 0.722513 0.210873
C7    C     C_3   0.072372 0.532811 0.649173 -0.419004
C8    C     C_3   0.075513 0.606568 0.402237 -0.368385
C9    C     C_3   0.122389 0.503954 0.500675 0.100510
H6    H     H_    0.112905 0.698488 0.437128 0.162084
H7    H     H_    0.109641 0.592762 0.294066 0.180367
C10   C     C_3   0.878572 0.504878 0.500667 0.083656
C11   C     C_3   0.929564 0.529881 0.649763 -0.367327
C12   C     C_3   0.931837 0.607254 0.402696 -0.414667
H8    H     H_    0.897795 0.591929 0.294585 0.182631
H9    H     H_    0.899719 0.699347 0.437327 0.158797
H10   H     H_    0.107521 0.625529 0.684073 0.170569
H11   H     H_    0.896306 0.619957 0.689251 0.165115
C13   C     C_R   0.308199 0.124462 0.664643 -0.265848
H12   H     H_    0.300897 0.223588 0.659803 0.169179
C14   C     C_R   0.221641 0.058733 0.748092 0.391597
C15   C     C_R   0.222999 0.929568 0.748472 -0.215361
H13   H     H_    0.156115 0.876263 0.809833 0.172000
C16   C     C_R   0.308599 0.867002 0.667559 -0.239153
H14   H     H_    0.301160 0.767290 0.667535 0.165571
C17   C     C_R   0.397962 0.931967 0.585702 0.119929
C18   C     C_R   0.398641 0.062743 0.584429 0.004629
C19   C     C_R   0.485800 0.127610 0.497494 -0.214830
C20   C     C_R   0.560722 0.062070 0.402785 0.334910
H15   H     H_    0.620900 0.885440 0.337609 0.173051
C21   C     C_R   0.558722 0.934555 0.406064 -0.268439
C22   C     C_R   0.483030 0.869758 0.499677 -0.138163
H16   H     H_    0.360517 0.360998 0.129117 0.159240
C23   C     C_R   0.664236 0.663116 0.143652 -0.162652
H17   H     H_    0.672633 0.670573 0.253169 0.186751
C24   C     C_R   0.744180 0.743145 0.071602 -0.173217
H18   H     H_    0.806945 0.805264 0.127806 0.172895
C25   C     C_R   0.743837 0.743590 0.928235 -0.177019
H19   H     H_    0.806397 0.806035 0.872092 0.170810
C26   C     C_R   0.663608 0.663935 0.856140 -0.153658
H20   H     H_    0.671522 0.672056 0.746571 0.194798
C27   C     C_R   0.580433 0.580485 0.925176 0.214856
C28   C     C_R   0.580584 0.580254 0.074677 0.222364
N1    N     N_R   0.501200 0.501210 0.147910 -0.202737
C29   C     C_R   0.423372 0.423656 0.073958 -0.019448
H21   H     H_    0.360816 0.361028 0.871040 0.171429
C30   C     C_R   0.423479 0.423667 0.926114 -0.038678
N2    N     N_R   0.501250 0.501290 0.852040 -0.207941
N3    N     N_R   0.642024 0.122889 0.304162 0.133293
O9    O     O_R   0.652072 0.079240 0.178317 -0.345424
O10   O     O_R   0.721329 0.207490 0.345886 -0.409558
N4    N     N_R   0.131335 0.122771 0.830463 0.111559
O11   O     O_R   0.131532 0.242980 0.833953 -0.437581
O12   O     O_R   0.049130 0.061388 0.904677 -0.367922
N5    N     N_2   0.120344 0.333967 0.323409 -0.434615
H22   H     H_    0.094545 0.384364 0.237719 0.274644
C31   C     C_3   0.118226 0.201867 0.299173 -0.613749
H23   H     H_    0.167047 0.181883 0.199805 0.253732
H24   H     H_    0.020621 0.165752 0.292122 0.260370
H25   H     H_    0.167170 0.154033 0.384442 0.213894

loop_
_geom_bond_atom_site_label_1
_geom_bond_atom_site_label_2
_geom_bond_distance
_ccdc_geom_bond_type
C26   H20   1.059065 S    
C10   C12   1.551329 S    
C17   C18   1.414936 A    
C13   C18   1.418354 A    
C14   N4    1.440956 S    
Cu1   Cu2   2.701637 S    
C16   C17   1.412239 A    
C25   H19   1.083229 S    
C20   N3    1.434912 S    
Cu1   O7    1.969500 S    
C1    C19   1.458876 S    
C12   H8    1.112499 S    
C7    H10   1.113341 S    
C8    C12   1.544095 S    
C14   C15   1.398100 A    
C15   H13   1.082738 S    
C31   H25   1.111543 S    
Cu2   N1    2.030523 S    
O4    C2    1.298755 A    
O7    C4    1.296928 A    
C5    H1    1.115866 S    
C29   C30   1.419803 A    
C13   H12   1.078754 S    
C8    H7    1.111492 S    
O5    C3    1.296118 A    
C23   C24   1.387214 A    
C8    C9    1.555743 S    
C27   N2    1.382797 A    
N5    H22   1.031439 S    
C4    C10   1.486718 S    
N1    C29   1.367489 A    
C7    C11   1.533991 S    
O3    Cu1   1.970986 S    
C20   C21   1.379766 A    
H16   C29   1.081882 S    
C25   C26   1.387525 A    
N4    O11   1.300988 A    
C6    C10   1.547151 S    
C31   H24   1.111280 S    
C16   H14   1.079658 S    
C3    C22   1.446999 S    
C28   N1    1.382876 A    
H15   C21   1.084276 S    
C23   C28   1.416679 A    
C24   H18   1.083260 S    
C24   C25   1.376858 A    
N3    O10   1.296890 A    
C19   C20   1.414651 A    
C30   N2    1.367474 A    
Cu2   O8    1.970986 S    
C2    C9    1.481988 S    
C6    H2    1.111863 S    
C17   C22   1.413110 A    
Cu1   N2    2.030075 S    
O3    C2    1.296684 A    
C5    C9    1.560065 S    
H5    C11   1.113657 S    
O8    C4    1.301550 A    
C11   H11   1.112561 S    
C26   C27   1.417033 A    
C7    C9    1.556123 S    
C18   C19   1.424091 A    
N4    O12   1.301908 A    
C5    C6    1.546929 S    
C5    N5    1.459422 S    
C21   C22   1.388511 A    
O1    Cu1   1.962127 S    
Cu2   O6    1.962128 S    
O2    Cu2   1.963318 S    
H4    C7    1.111757 S    
C31   H23   1.110947 S    
O6    C3    1.296711 A    
O4    Cu2   1.969500 S    
N3    O9    1.301572 A    
O2    C1    1.296125 A    
C12   H9    1.113153 S    
C27   C28   1.435738 A    
C6    H3    1.113048 S    
C13   C14   1.405103 A    
C8    H6    1.113523 S    
H21   C30   1.080643 S    
Cu1   O5    1.963318 S    
C15   C16   1.390953 A    
C23   H17   1.058595 S    
C10   C11   1.555256 S    
N5    C31   1.447137 S    
O1    C1    1.301098 A    
