data_str_m9_o11_o16_f0_sra.sym.201
_audit_creation_date              2012-12-11T14:17:38-0500
_audit_creation_method            fapswitch 2.2
_symmetry_space_group_name_H-M    P1
_symmetry_Int_Tables_number       1
_space_group_crystal_system       triclinic
_cell_length_a                    6.943947
_cell_length_b                    13.621271
_cell_length_c                    20.39463
_cell_angle_alpha                 102.138833
_cell_angle_beta                  89.897842
_cell_angle_gamma                 90.706309
_cell_volume                      1885.75858374

loop_
_atom_site_label
_atom_site_type_symbol
_atom_type_description
_atom_site_fract_x
_atom_site_fract_y
_atom_site_fract_z
_atom_type_partial_charge
O1    O     O_R   0.506860 0.599390 0.449240 -0.536760
O2    O     O_R   0.180220 0.594600 0.586780 -0.543800
O3    O     O_R   0.004500 0.400610 0.550760 -0.541911
C1    C     C_R   0.349003 0.615910 0.613530 0.796085
O4    O     O_R   0.177490 0.611290 0.451970 -0.537576
O5    O     O_R   0.001750 0.417420 0.414990 -0.542806
C2    C     C_R   0.347111 0.638486 0.435552 0.775968
O6    O     O_R   0.509610 0.582580 0.585010 -0.537661
O7    O     O_3   0.337420 0.436370 0.488020 -0.380456
V1    V     V_3+5 0.064680 0.511800 0.502220 1.450328
O8    O     O_R   0.671710 0.405400 0.413220 -0.549049
C3    C     C_R   0.839802 0.384159 0.386494 0.735654
O9    O     O_R   0.674440 0.388710 0.548030 -0.543960
C4    C     C_R   0.842485 0.361788 0.564602 0.688262
V2    V     V_3+5 0.564010 0.488200 0.497780 1.445769
O10   O     O_3   0.841140 0.563630 0.511980 -0.368456
C5    C     C_R   0.834851 0.109360 0.610552 -0.105461
H1    H     H_    0.816568 0.161469 0.518637 0.113010
H2    H     H_    0.817911 0.032405 0.583839 0.164272
C6    C     C_R   0.848533 0.283890 0.604036 -0.038391
C7    C     C_R   0.869807 0.314955 0.927627 -0.127814
C8    C     C_R   0.870503 0.390557 0.891459 -0.062587
C9    C     C_R   0.867617 0.366907 0.821609 -0.162430
C10   C     C_R   0.864078 0.265604 0.785650 0.080337
C11   C     C_R   0.861721 0.188567 0.823159 0.044971
C12   C     C_R   0.860816 0.238585 0.714011 0.068882
C13   C     C_R   0.853069 0.135001 0.681126 0.050891
C14   C     C_R   0.857526 0.059681 0.719449 -0.026394
C15   C     C_R   0.858896 0.087357 0.789366 -0.232753
C16   C     C_R   0.862939 0.311528 0.673719 -0.198927
C17   C     C_R   0.831938 0.183102 0.572639 -0.155969
C18   C     C_R   0.864919 0.214352 0.894287 -0.079061
H3    H     H_    0.873359 0.390858 0.694612 0.090676
H4    H     H_    0.873611 0.334929 0.981942 0.116910
H5    H     H_    0.867720 0.430137 0.797668 0.106545
H6    H     H_    0.873789 0.468385 0.917779 0.137054
H7    H     H_    0.861442 0.028129 0.817459 0.135844
C19   C     C_2   0.005436 0.289984 0.284596 -0.119710
C20   C     C_2   0.842303 0.315872 0.319666 -0.307534
H8    H     H_    0.142485 0.319381 0.306313 0.134649
H9    H     H_    0.703756 0.287061 0.299600 0.127421
C21   C     C_2   0.013822 0.221935 0.216939 -0.113657
C22   C     C_2   0.858576 0.183640 0.180254 -0.301759
H10   H     H_    0.156701 0.203505 0.196636 0.135494
H11   H     H_    0.714380 0.201437 0.198889 0.128519
C23   C     C_2   0.204705 0.791647 0.782059 -0.115435
C24   C     C_2   0.363621 0.815862 0.819840 -0.289132
H12   H     H_    0.067259 0.822470 0.801261 0.150543
H13   H     H_    0.501865 0.785343 0.801966 0.151201
C25   C     C_2   0.202850 0.722775 0.714675 -0.111120
C26   C     C_2   0.361013 0.684678 0.680108 -0.264502
H14   H     H_    0.061543 0.703522 0.692629 0.142825
H15   H     H_    0.504183 0.703683 0.700048 0.149265
C27   C     C_R   0.404585 0.891240 0.387660 -0.204275
H16   H     H_    0.435178 0.013854 0.303235 0.122414
H17   H     H_    0.427221 0.969922 0.410411 0.155866
C28   C     C_R   0.359240 0.718412 0.397350 -0.110777
C29   C     C_R   0.319274 0.685796 0.072498 -0.219607
C30   C     C_R   0.298640 0.609454 0.108476 0.037302
C31   C     C_R   0.313082 0.633548 0.178692 -0.217305
C32   C     C_R   0.347825 0.733481 0.214139 0.060172
C33   C     C_R   0.367845 0.809990 0.176367 0.073641
C34   C     C_R   0.361447 0.760280 0.285847 0.095361
C35   C     C_R   0.392410 0.862368 0.317578 0.120189
C36   C     C_R   0.411188 0.935735 0.279313 -0.193478
C37   C     C_R   0.399652 0.910168 0.209952 -0.188566
C38   C     C_R   0.346003 0.689501 0.327342 -0.233349
C39   C     C_R   0.387854 0.820687 0.428567 -0.040924
C40   C     C_R   0.353621 0.785066 0.105564 -0.097855
H18   H     H_    0.325386 0.610463 0.307003 0.102070
H19   H     H_    0.307131 0.668384 0.018276 0.140677
H20   H     H_    0.295113 0.572674 0.204316 0.152138
H21   H     H_    0.415297 0.970149 0.182854 0.115571
O11   O     O_R   0.203230 0.917310 0.915020 -0.541158
O12   O     O_R   0.535500 0.888690 0.048040 -0.541506
O13   O     O_R   0.711080 0.082610 0.085000 -0.544559
C41   C     C_R   0.365955 0.862187 0.065054 0.694646
O14   O     O_R   0.532630 0.905370 0.913230 -0.543201
O15   O     O_R   0.708190 0.099410 0.949230 -0.535855
C42   C     C_R   0.364411 0.884340 0.886464 0.745958
O16   O     O_R   0.206120 0.900510 0.050790 -0.538991
O17   O     O_3   0.375360 0.063570 0.011990 -0.372102
V3    V     V_3+5 0.648170 0.988200 0.997780 1.436090
O18   O     O_R   0.038240 0.111390 0.951940 -0.540224
C43   C     C_R   0.870308 0.137617 0.934907 0.690424
O19   O     O_R   0.041120 0.094710 0.086750 -0.543676
C44   C     C_R   0.872484 0.115879 0.113474 0.741440
V4    V     V_3+5 0.148810 0.011930 0.002180 1.433561
O20   O     O_3   0.871750 0.936430 0.988010 -0.372711
C45   C     C_2   0.400493 0.857173 0.502921 0.756524
O21   O     O_2   0.378323 0.799518 0.540902 -0.567599
O22   O     O_R   0.436804 0.958950 0.529858 -0.668366
H22   H     H_    0.441163 0.974761 0.580705 0.312631
C46   C     C_2   0.866444 0.950781 0.688599 0.735227
O23   O     O_2   0.767173 0.890761 0.711080 -0.575148
O24   O     O_R   0.994203 0.916321 0.635918 -0.655096
H23   H     H_    0.987616 0.840726 0.619600 0.309742
C47   C     C_2   0.259949 0.504131 0.072766 0.742083
O25   O     O_2   0.250776 0.483037 0.011493 -0.569981
O26   O     O_R   0.233401 0.428526 0.109067 -0.674185
H24   H     H_    0.207260 0.360252 0.079097 0.290464

loop_
_geom_bond_atom_site_label_1
_geom_bond_atom_site_label_2
_ccdc_geom_bond_type
O15   V3    S    
C40   C41   S    
C1    O6    A    
C24   H13   S    
C6    C16   A    
C12   C13   A    
C14   C15   A    
C10   C12   A    
C19   C21   S    
O5    C3    A    
C19   C20   D    
O14   C42   A    
C29   H19   S    
C27   C39   A    
C31   H20   S    
V2    O10   S    
C14   C46   S    
C32   C34   A    
O22   H22   S    
O8    V2    S    
O14   V3    S    
C25   H14   S    
C9    C10   A    
O1    V2    S    
O7    V1    S    
C11   C18   A    
C30   C31   A    
O11   C42   A    
O9    C4    A    
C32   C33   A    
C21   H10   S    
C24   C42   S    
C28   C38   A    
O13   V3    S    
H16   C36   S    
C34   C38   A    
C11   C15   A    
C45   O22   S    
V3    O20   S    
C7    C18   A    
C27   H17   S    
C33   C37   A    
C1    C26   S    
C5    C13   A    
C4    C6    S    
O18   C43   A    
C20   H9    S    
O4    C2    A    
O19   C44   A    
C7    H4    S    
C29   C30   A    
C37   H21   S    
O17   V3    S    
C33   C40   A    
C31   C32   A    
C26   H15   S    
O2    C1    A    
O12   C41   A    
C39   C45   S    
C41   O16   A    
O24   H23   S    
C25   C26   D    
C10   C11   A    
C46   O24   S    
C22   H11   S    
O13   C44   A    
O3    C4    A    
C12   C16   A    
O6    V2    S    
C47   O26   S    
O9    V2    S    
C5    C17   A    
C21   C22   D    
C28   C39   A    
O2    V1    S    
O15   C43   A    
C23   C24   D    
C16   H3    S    
O1    C2    A    
O18   V4    S    
O5    V1    S    
O8    C3    A    
C29   C40   A    
C8    H6    S    
C23   C25   S    
C9    H5    S    
C38   H18   S    
C22   C44   S    
C35   C36   A    
C3    C20   S    
O7    V2    S    
O4    V1    S    
O3    V1    S    
V1    O10   S    
C19   H8    S    
O12   V3    S    
C45   O21   D    
C27   C35   A    
O17   V4    S    
C18   C43   S    
O26   H24   S    
C5    H2    S    
O19   V4    S    
C36   C37   A    
C46   O23   D    
O16   V4    S    
C34   C35   A    
C23   H12   S    
V4    O20   S    
C47   O25   D    
C15   H7    S    
C13   C14   A    
C30   C47   S    
C8    C9    A    
H1    C17   S    
O11   V4    S    
C7    C8    A    
C2    C28   S    
C6    C17   A    
