data_str_m9_o16_o19_f0_sra.sym.76
_audit_creation_date              2012-12-11T15:09:45-0500
_audit_creation_method            fapswitch 2.2
_symmetry_space_group_name_H-M    P1
_symmetry_Int_Tables_number       1
_space_group_crystal_system       triclinic
_cell_length_a                    21.000348
_cell_length_b                    7.128031
_cell_length_c                    13.996057
_cell_angle_alpha                 90.073446
_cell_angle_beta                  98.338864
_cell_angle_gamma                 89.91448
_cell_volume                      2072.93210771

loop_
_atom_site_label
_atom_site_type_symbol
_atom_type_description
_atom_site_fract_x
_atom_site_fract_y
_atom_site_fract_z
_atom_type_partial_charge
O1    O     O_R   0.447130 0.507140 0.597350 -0.538067
O2    O     O_R   0.552870 0.007140 0.402650 -0.539072
O3    O     O_R   0.578910 0.181280 0.586990 -0.541186
O4    O     O_R   0.421090 0.681280 0.413010 -0.540831
C1    C     C_R   0.604476 0.344422 0.607438 0.730863
C2    C     C_R   0.395525 0.844496 0.392557 0.732749
O5    O     O_R   0.449230 0.177860 0.608640 -0.537844
O6    O     O_R   0.550770 0.677860 0.391360 -0.537681
O7    O     O_R   0.422260 0.000770 0.424450 -0.534766
O8    O     O_R   0.577740 0.500770 0.575550 -0.534722
C3    C     C_R   0.432505 0.346283 0.634090 0.709677
C4    C     C_R   0.567774 0.845831 0.366126 0.709462
O9    O     O_3   0.491310 0.336980 0.439550 -0.372584
O10   O     O_3   0.508690 0.836980 0.560450 -0.372404
V1    V     V_3+5 0.501610 0.064760 0.511210 1.489670
V2    V     V_3+5 0.498390 0.564760 0.488790 1.490887
C5    C     C_R   0.616575 0.798939 0.120883 0.493596
C6    C     C_R   0.383535 0.321858 0.879798 0.496358
H1    H     H_    0.529188 0.774930 0.182164 0.184280
H2    H     H_    0.470986 0.287698 0.819505 0.183700
C7    C     C_R   0.608358 0.851082 0.289625 -0.188326
C8    C     C_R   0.391663 0.353729 0.710031 -0.187060
C9    C     C_R   0.918766 0.835461 0.303599 0.307867
C10   C     C_R   0.081316 0.327435 0.697045 0.307717
C11   C     C_R   0.880364 0.802681 0.375335 -0.218475
C12   C     C_R   0.119892 0.294859 0.625568 -0.219639
C13   C     C_R   0.813819 0.800854 0.352852 -0.090274
C14   C     C_R   0.186387 0.299337 0.647785 -0.091139
C15   C     C_R   0.782717 0.840498 0.258459 0.062870
C16   C     C_R   0.217299 0.346178 0.741474 0.063153
C17   C     C_R   0.820974 0.857504 0.183155 -0.080363
C18   C     C_R   0.179030 0.362797 0.816990 -0.082097
C19   C     C_R   0.714341 0.851360 0.236817 -0.060457
C20   C     C_R   0.285623 0.359743 0.762527 -0.060754
C21   C     C_R   0.684377 0.827484 0.139402 -0.109274
C22   C     C_R   0.315857 0.350534 0.860289 -0.111303
C23   C     C_R   0.722910 0.833352 0.064454 0.340189
C24   C     C_R   0.278179 0.375721 0.935022 0.345150
C25   C     C_R   0.789773 0.869299 0.086287 0.195573
C26   C     C_R   0.210143 0.377655 0.914082 0.195197
C27   C     C_R   0.675122 0.885772 0.309760 0.315122
C28   C     C_R   0.324776 0.386253 0.688815 0.314718
C29   C     C_R   0.580392 0.803726 0.196553 -0.233267
C30   C     C_R   0.419777 0.316271 0.804248 -0.234713
C31   C     C_R   0.889476 0.858892 0.207553 -0.094428
C32   C     C_R   0.110488 0.356968 0.792677 -0.094110
H3    H     H_    0.787531 0.758745 0.410054 0.173846
H4    H     H_    0.212760 0.255219 0.591003 0.175140
H5    H     H_    0.902049 0.774460 0.448940 0.128218
H6    H     H_    0.098428 0.261408 0.552443 0.128394
C33   C     C_1   0.166667 0.857072 0.168113 -0.155830
C34   C     C_1   0.833333 0.357321 0.831877 -0.162546
C35   C     C_1   0.219090 0.854784 0.219159 0.016390
C36   C     C_1   0.780913 0.354979 0.780834 0.015364
C37   C     C_1   0.280824 0.853361 0.279212 0.036782
C38   C     C_1   0.719176 0.353365 0.720785 0.038585
C39   C     C_1   0.333156 0.851088 0.330504 -0.154231
C40   C     C_1   0.666844 0.350946 0.669495 -0.154311
O11   O     O_R   0.922300 0.202240 0.924350 -0.526271
O12   O     O_R   0.077700 0.702240 0.075650 -0.522823
O13   O     O_R   0.050780 0.535130 0.891350 -0.539125
O14   O     O_R   0.949220 0.035130 0.108650 -0.537534
C41   C     C_R   0.067787 0.367849 0.866121 0.872266
C42   C     C_R   0.932021 0.868228 0.133727 0.872269
O15   O     O_R   0.921100 0.531560 0.912990 -0.535982
O16   O     O_R   0.078900 0.031560 0.087010 -0.540578
O17   O     O_R   0.947120 0.708470 0.097370 -0.542072
O18   O     O_R   0.052880 0.208470 0.902630 -0.540550
C43   C     C_R   0.895849 0.363635 0.893515 0.730542
C44   C     C_R   0.104152 0.863546 0.106483 0.730715
O19   O     O_3   0.008710 0.375800 0.060400 -0.378990
O20   O     O_3   0.991290 0.875800 0.939600 -0.378292
V3    V     V_3+5 0.998380 0.648080 0.988790 1.533160
V4    V     V_3+5 0.001620 0.148080 0.011210 1.524063
O21   O     O_3   0.694913 0.808918 0.969783 -0.594842
H7    H     H_    0.726888 0.751831 0.932851 0.306394
O22   O     O_3   0.308481 0.410443 0.027695 -0.595008
H8    H     H_    0.281383 0.496048 0.060585 0.307927
Cl1   Cl    Cl    0.572507 0.748915 0.006344 -0.502314
Cl2   Cl    Cl    0.426150 0.273857 0.995533 -0.502713
O23   O     O_3   0.702802 0.964164 0.396602 -0.653853
H9    H     H_    0.670766 0.982186 0.440893 0.286233
O24   O     O_3   0.297102 0.457649 0.600340 -0.653885
H10   H     H_    0.328780 0.466771 0.554900 0.284866
O25   O     O_3   0.985169 0.837227 0.324696 -0.661398
H11   H     H_    0.997866 0.818381 0.395090 0.291536
O26   O     O_3   0.014908 0.323133 0.676200 -0.661396
H12   H     H_    0.002313 0.300495 0.606068 0.291818
O27   O     O_3   0.824871 0.912946 0.013113 -0.654239
H13   H     H_    0.796599 0.979299 0.960999 0.298768
O28   O     O_3   0.173877 0.386843 0.988803 -0.653916
H14   H     H_    0.196703 0.318480 0.045300 0.295464

loop_
_geom_bond_atom_site_label_1
_geom_bond_atom_site_label_2
_ccdc_geom_bond_type
C16   C18   A    
O26   H12   S    
C9    C31   A    
C13   C15   A    
C20   C28   A    
O2    C4    A    
C2    O7    A    
O23   H9    S    
C8    C28   A    
O22   H8    S    
O5    C3    A    
C1    C40   S    
C21   C23   A    
C10   C12   A    
C12   H6    S    
O18   V4    S    
O16   V4    S    
C15   C19   A    
O12   V3    S    
C5    Cl1   S    
O15   V3    S    
O13   C41   A    
O14   C42   A    
C34   C43   S    
C7    C29   A    
C8    C30   A    
H1    C29   S    
O1    C3    A    
O17   V3    S    
C33   C44   S    
C38   C40   T    
O5    V1    S    
C23   O21   S    
O6    V2    S    
C15   C17   A    
C2    C39   S    
H2    C30   S    
C34   C36   T    
C35   C37   S    
C36   C38   S    
C16   C20   A    
C42   O17   A    
O20   V4    S    
O28   H14   S    
O19   V3    S    
O13   V3    S    
O25   H11   S    
C4    C7    S    
C33   C35   T    
O4    V2    S    
O21   H7    S    
C5    C29   A    
C6    C30   A    
O24   H10   S    
O12   C44   A    
O6    C4    A    
C27   O23   S    
O1    V2    S    
O2    V1    S    
O11   V4    S    
O11   C43   A    
C7    C27   A    
O4    C2    A    
C37   C39   T    
C17   C31   A    
O3    V1    S    
C13   H3    S    
C41   O18   A    
C14   H4    S    
C3    C8    S    
C18   C32   A    
C28   O24   S    
O20   V3    S    
O3    C1    A    
O19   V4    S    
C24   O22   S    
C11   C13   A    
C31   C42   S    
C12   C14   A    
C32   C41   S    
C10   C32   A    
C14   C16   A    
O7    V1    S    
C19   C27   A    
C1    O8    A    
C23   C25   A    
O8    V2    S    
C24   C26   A    
O16   C44   A    
O15   C43   A    
C22   C24   A    
C19   C21   A    
C17   C25   A    
C20   C22   A    
C18   C26   A    
C26   O28   S    
C10   O26   S    
C11   H5    S    
C9    C11   A    
C6    Cl2   S    
C9    O25   S    
O9    V2    S    
O10   V1    S    
O14   V4    S    
C5    C21   A    
O27   H13   S    
C6    C22   A    
C25   O27   S    
