data_str_m2_o1_o9_f0_pcu.sym.113
_audit_creation_date              2012-12-10T18:05:40-0500
_audit_creation_method            fapswitch 2.2
_symmetry_space_group_name_H-M    P1
_symmetry_Int_Tables_number       1
_space_group_crystal_system       triclinic
_cell_length_a                    10.904384
_cell_length_b                    10.84473
_cell_length_c                    9.499921
_cell_angle_alpha                 89.848502
_cell_angle_beta                  90.104564
_cell_angle_gamma                 91.086045
_cell_volume                      1123.2066023

loop_
_atom_site_label
_atom_site_type_symbol
_atom_type_description
_atom_site_fract_x
_atom_site_fract_y
_atom_site_fract_z
_atom_type_partial_charge
C1    C     C_R   0.494802 0.262039 0.499868 0.767842
C2    C     C_R   0.501637 0.738034 0.499953 0.775573
C3    C     C_R   0.872350 0.498997 0.503142 -0.088504
C4    C     C_R   0.128931 0.504828 0.498986 -0.062954
C5    C     C_R   0.939131 0.454587 0.620358 0.003082
C6    C     C_R   0.062982 0.554632 0.384639 0.019944
C7    C     C_R   0.503605 0.064261 0.372104 -0.200915
C8    C     C_R   0.481830 0.935355 0.626505 -0.189830
C9    C     C_R   0.508082 0.936743 0.372417 -0.232330
C10   C     C_R   0.477972 0.062940 0.626226 -0.204408
C11   C     C_R   0.498214 0.871785 0.499787 -0.026673
C12   C     C_R   0.490416 0.127994 0.499258 -0.023214
C13   C     C_R   0.430567 0.415803 0.074544 -0.014613
C14   C     C_R   0.568388 0.585038 0.925440 0.000549
C15   C     C_R   0.430622 0.415813 0.925588 -0.028017
C16   C     C_R   0.568286 0.585062 0.074409 -0.025162
C17   C     C_R   0.262282 0.500286 0.499574 0.774586
C18   C     C_R   0.738095 0.499033 0.500752 0.790318
C19   C     C_R   0.234646 0.790301 0.154347 -0.157393
C20   C     C_R   0.757294 0.252901 0.878374 -0.145554
C21   C     C_R   0.182926 0.735536 0.275626 0.145344
C22   C     C_R   0.818026 0.289268 0.753790 0.154299
C23   C     C_R   0.122662 0.618383 0.263294 0.113386
C24   C     C_R   0.880335 0.405165 0.749893 0.107147
C25   C     C_R   0.116987 0.560288 0.131319 -0.190335
C26   C     C_R   0.885352 0.478124 0.871700 -0.193264
C27   C     C_R   0.169996 0.615892 0.012992 -0.144264
C28   C     C_R   0.828146 0.438355 0.995321 -0.151912
C29   C     C_R   0.228155 0.730872 0.024345 -0.134582
C30   C     C_R   0.763495 0.326417 0.998523 -0.130509
C31   C     C_R   0.935207 0.548322 0.387018 -0.272892
C32   C     C_R   0.066430 0.457259 0.616009 -0.252058
Cu1   Cu    Cu3+1 0.500000 0.500020 0.640660 0.937614
Cu2   Cu    Cu3+1 0.500000 0.499980 0.359340 0.938103
H1    H     H_    0.269591 0.773556 0.932442 0.130073
H2    H     H_    0.716812 0.297269 0.093793 0.141850
H3    H     H_    0.374959 0.348531 0.869389 0.108732
H4    H     H_    0.623630 0.652621 0.130589 0.107407
H5    H     H_    0.282367 0.878627 0.160531 0.116444
H6    H     H_    0.703958 0.167736 0.882402 0.116226
H7    H     H_    0.072799 0.470525 0.120653 0.138891
H8    H     H_    0.931880 0.567234 0.869970 0.137817
H9    H     H_    0.166365 0.569542 0.912293 0.137496
H10   H     H_    0.831418 0.495899 0.087830 0.136381
H11   H     H_    0.884537 0.588265 0.300565 0.144184
H12   H     H_    0.116993 0.419985 0.704379 0.146385
H13   H     H_    0.513147 0.112759 0.272783 0.146545
H14   H     H_    0.472432 0.886786 0.725799 0.144297
H15   H     H_    0.519818 0.889272 0.273307 0.151905
H16   H     H_    0.467035 0.110536 0.725394 0.141630
H17   H     H_    0.374813 0.348551 0.130837 0.114266
H18   H     H_    0.623878 0.652523 0.869159 0.114615
N1    N     N_R   0.500030 0.500030 0.852070 -0.153063
N2    N     N_R   0.499970 0.499970 0.147930 -0.154425
O1    O     O_R   0.499990 0.319660 0.618740 -0.590936
O2    O     O_R   0.500010 0.680340 0.381260 -0.585472
O3    O     O_R   0.499990 0.319630 0.381170 -0.592216
O4    O     O_R   0.500010 0.680370 0.618830 -0.593592
O5    O     O_R   0.319650 0.500020 0.618780 -0.592890
O6    O     O_R   0.680350 0.499980 0.381220 -0.589733
O7    O     O_R   0.319640 0.500000 0.381210 -0.570726
O8    O     O_R   0.680360 0.500000 0.618790 -0.567692
C33   C     C_3   0.204692 0.798438 0.416131 -0.416778
C34   C     C_3   0.088495 0.839861 0.490846 -0.358439
C35   C     C_3   0.110397 0.849290 0.649672 -0.848318
H19   H     H_    0.137159 0.758365 0.693028 0.255335
H20   H     H_    0.184100 0.918611 0.672349 0.253929
H21   H     H_    0.025449 0.876941 0.703959 0.242035
H22   H     H_    0.063268 0.931577 0.448907 0.222823
H23   H     H_    0.010449 0.775464 0.472114 0.232219
H24   H     H_    0.256351 0.735780 0.484755 0.202599
H25   H     H_    0.263728 0.881935 0.402288 0.200934
C36   C     C_3   0.807173 0.207393 0.625668 -0.424442
C37   C     C_3   0.859754 0.079158 0.649874 -0.363384
C38   C     C_3   0.822965 0.993312 0.529382 -0.857635
H26   H     H_    0.722796 0.993970 0.513822 0.282694
H27   H     H_    0.868055 0.023179 0.429984 0.247285
H28   H     H_    0.847540 0.897250 0.555003 0.240834
H29   H     H_    0.961341 0.086749 0.656747 0.226319
H30   H     H_    0.824606 0.037955 0.749365 0.215515
H31   H     H_    0.708996 0.197990 0.600460 0.210093
H32   H     H_    0.852637 0.248275 0.531805 0.193579

loop_
_geom_bond_atom_site_label_1
_geom_bond_atom_site_label_2
_ccdc_geom_bond_type
Cu1   O1    S    
Cu2   O2    S    
Cu1   O4    S    
C27   C29   A    
C36   C37   S    
C20   C30   A    
C15   N1    A    
C19   C21   A    
C24   C26   A    
C20   H6    S    
C3    C18   S    
C15   H3    S    
C17   O7    A    
C13   H17   S    
C14   H18   S    
Cu1   O8    S    
C35   H20   S    
Cu2   O3    S    
C34   H23   S    
C5    C32   A    
C6    C31   A    
Cu1   O5    S    
C37   H30   S    
Cu2   O6    S    
C1    C12   S    
C2    C11   S    
C36   H31   S    
C21   C23   A    
Cu1   N1    S    
C7    C12   A    
C37   C38   S    
C9    H15   S    
C4    C6    A    
C25   H7    S    
C18   O8    A    
C28   H10   S    
Cu2   O7    S    
C7    H13   S    
C38   H26   S    
C8    H14   S    
C1    O3    A    
C38   H27   S    
C35   H21   S    
Cu1   Cu2   S    
C34   H22   S    
C3    C31   A    
C9    C11   A    
C4    C32   A    
C10   C12   A    
C17   O5    A    
C4    C17   S    
C18   O6    A    
C33   H24   S    
Cu2   N2    S    
C37   H29   S    
C13   C15   A    
C22   C24   A    
C10   H16   S    
C36   H32   S    
C26   H8    S    
C13   N2    A    
C7    C9    A    
C32   H12   S    
C8    C10   A    
C20   C22   A    
C3    C5    A    
C2    O4    A    
C25   C27   A    
C29   H1    S    
C26   C28   A    
C30   H2    S    
C34   C35   S    
C28   C30   A    
C1    O1    A    
C2    O2    A    
C5    C24   S    
C8    C11   A    
C6    C23   S    
C14   C16   A    
C23   C25   A    
C38   H28   S    
C16   N2    A    
C21   C33   S    
C33   C34   S    
C27   H9    S    
C14   N1    A    
C33   H25   S    
C19   H5    S    
C35   H19   S    
C31   H11   S    
C22   C36   S    
C16   H4    S    
C19   C29   A    
