data_str_m3_o10_o29_f0_pcu.sym.136
_audit_creation_date              2012-12-10T16:59:13-0500
_audit_creation_method            fapswitch 2.2
_symmetry_space_group_name_H-M    P1
_symmetry_Int_Tables_number       1
_space_group_crystal_system       triclinic
_cell_length_a                    7.903901
_cell_length_b                    8.584056
_cell_length_c                    27.604462
_cell_angle_alpha                 94.161275
_cell_angle_beta                  84.760709
_cell_angle_gamma                 92.536823
_cell_volume                      1858.8168517

loop_
_atom_site_label
_atom_site_type_symbol
_atom_type_description
_atom_site_fract_x
_atom_site_fract_y
_atom_site_fract_z
_atom_type_partial_charge
C1    C     C_R   0.543533 0.793787 0.500291 0.867257
C2    C     C_R   0.530589 0.669903 0.128890 -0.055961
C3    C     C_R   0.497588 0.507337 0.647480 -0.080593
C4    C     C_R   0.495904 0.507784 0.353124 -0.087351
C5    C     C_R   0.483021 0.694705 0.029308 0.020411
C6    C     C_R   0.324106 0.440523 0.978643 0.013640
C7    C     C_R   0.301161 0.455258 0.030170 -0.040276
C8    C     C_R   0.459549 0.703669 0.979342 -0.041861
C9    C     C_R   0.399548 0.572335 0.054863 0.057948
C10   C     C_R   0.399085 0.567088 0.953345 0.049594
C11   C     C_R   0.598798 0.795855 0.053165 -0.339932
C12   C     C_R   0.456468 0.206212 0.499709 0.872962
C13   C     C_R   0.288142 0.298522 0.952121 -0.298722
C14   C     C_R   0.622602 0.785965 0.102539 0.499248
C15   C     C_R   0.312320 0.283575 0.901131 0.506152
C16   C     C_R   0.500250 0.501276 0.594030 0.890225
C17   C     C_R   0.499593 0.500425 0.406034 0.890377
C18   C     C_R   0.503295 0.839450 0.953482 0.385229
C19   C     C_R   0.192759 0.352267 0.058200 0.395458
C20   C     C_2   0.560944 0.957796 0.507618 0.189101
C21   C     C_2   0.439065 0.042198 0.492379 0.189462
C22   C     C_R   0.505467 0.672219 0.825922 0.557782
C23   C     C_R   0.418560 0.555534 0.901920 -0.141150
C24   C     C_R   0.352215 0.434416 0.179678 0.551556
C25   C     C_R   0.401101 0.406577 0.824446 0.559227
C26   C     C_R   0.548098 0.654483 0.178627 0.566705
C27   C     C_R   0.330456 0.536060 0.725507 -0.099320
C28   C     C_R   0.333333 0.560652 0.286236 -0.100469
C29   C     C_R   0.340290 0.526594 0.675116 -0.287473
C30   C     C_R   0.343758 0.549785 0.335585 -0.266310
C31   C     C_R   0.647101 0.497303 0.671507 0.439137
C32   C     C_R   0.639582 0.476142 0.319988 0.429894
C33   C     C_R   0.634842 0.507549 0.722734 -0.209707
C34   C     C_R   0.418762 0.563572 0.104890 -0.134130
C35   C     C_R   0.626550 0.486811 0.269921 -0.198636
C36   C     C_R   0.477159 0.526711 0.749266 0.267865
C37   C     C_R   0.473947 0.528755 0.253355 0.253352
C38   C     C_3   0.927560 0.230177 0.432810 -0.609704
C39   C     C_3   0.072683 0.769174 0.567529 -0.648368
C40   C     C_R   0.484006 0.685416 0.876810 -0.103040
C41   C     C_R   0.328540 0.445722 0.130628 -0.095767
C42   C     C_R   0.521090 0.827009 0.902787 -0.113259
C43   C     C_R   0.212887 0.344498 0.107419 -0.110864
C44   C     C_R   0.375964 0.413654 0.875659 -0.067715
H1    H     H_    0.747046 0.499964 0.742115 0.138875
H2    H     H_    0.248864 0.195028 0.970870 0.201979
H3    H     H_    0.892085 0.473552 0.667450 0.329454
H4    H     H_    0.875950 0.417148 0.308811 0.342609
H5    H     H_    0.146476 0.340411 0.450489 0.264767
H6    H     H_    0.999818 0.165161 0.401930 0.201211
H7    H     H_    0.806169 0.259650 0.419741 0.286449
H8    H     H_    0.905349 0.152409 0.463377 0.250941
H9    H     H_    0.853600 0.659948 0.549428 0.271531
H10   H     H_    0.999843 0.834316 0.598270 0.206097
H11   H     H_    0.096391 0.847174 0.537062 0.258843
H12   H     H_    0.734160 0.461929 0.243704 0.154236
H13   H     H_    0.193195 0.738932 0.580969 0.262836
H14   H     H_    0.789042 0.961337 0.101577 0.345590
H15   H     H_    0.231725 0.064757 0.899330 0.333058
H16   H     H_    0.441892 0.990960 0.006680 0.342714
H17   H     H_    0.018154 0.322603 0.013404 0.344924
H18   H     H_    0.755713 0.942809 0.545920 0.334043
H19   H     H_    0.244344 0.057183 0.454061 0.332460
H20   H     H_    0.560189 0.930638 0.883817 0.231291
H21   H     H_    0.133552 0.261040 0.127720 0.213864
H22   H     H_    0.231842 0.575655 0.360022 0.214411
H23   H     H_    0.223596 0.534990 0.657904 0.196680
H24   H     H_    0.215411 0.593755 0.273378 0.163923
H25   H     H_    0.208475 0.550760 0.746278 0.150148
H26   H     H_    0.678921 0.878569 0.033036 0.203788
N1    N     N_R   0.464125 0.534608 0.801161 -0.363136
N2    N     N_R   0.459963 0.538054 0.202484 -0.356678
N3    N     N_2   0.950320 0.457960 0.486880 0.032674
N4    N     N_2   0.049680 0.542040 0.513120 0.034296
N5    N     N_2   0.025080 0.368728 0.447666 -0.222304
N6    N     N_2   0.974824 0.631238 0.552323 -0.189239
O1    O     O_R   0.389250 0.738570 0.503220 -0.572992
O2    O     O_2   0.268768 0.320292 0.204554 -0.545446
O3    O     O_2   0.650156 0.755407 0.203366 -0.468321
O4    O     O_2   0.362904 0.273767 0.797770 -0.453317
O5    O     O_3   0.802117 0.477564 0.644815 -0.731388
O6    O     O_3   0.789346 0.434234 0.336828 -0.749973
O7    O     O_3   0.737264 0.886923 0.125043 -0.686385
O8    O     O_3   0.276061 0.142502 0.875996 -0.688298
O9    O     O_3   0.517342 0.987726 0.975921 -0.777296
O10   O     O_3   0.058102 0.266271 0.040067 -0.777082
O11   O     O_3   0.687983 0.025636 0.534787 -0.768455
O12   O     O_R   0.610750 0.261430 0.496780 -0.576506
O13   O     O_3   0.312034 0.974353 0.465207 -0.778845
O14   O     O_R   0.678390 0.711630 0.494810 -0.672647
O15   O     O_R   0.321610 0.288370 0.505190 -0.662818
O16   O     O_R   0.355440 0.513440 0.575450 -0.636247
O17   O     O_R   0.644560 0.486560 0.424550 -0.563187
O18   O     O_R   0.644590 0.486500 0.567040 -0.569600
O19   O     O_R   0.355410 0.513500 0.432960 -0.650986
O20   O     O_2   0.565718 0.796010 0.801198 -0.517338
Zn1   Zn    Zn3+2 0.306940 0.517990 0.505620 0.988442
Zn2   Zn    Zn3+2 0.693060 0.482010 0.494380 1.024371

loop_
_geom_bond_atom_site_label_1
_geom_bond_atom_site_label_2
_ccdc_geom_bond_type
C1    O14   A    
C27   C29   A    
C25   O4    S    
C33   H1    S    
N3    N4    D    
C6    C7    A    
C12   O15   A    
C19   O10   S    
C11   H26   S    
C21   O13   S    
N4    N6    S    
C35   C37   A    
C15   C44   A    
C5    C11   A    
C18   C42   A    
C13   H2    S    
C11   C14   A    
C39   H10   S    
C38   H8    S    
O18   Zn2   S    
C23   C40   A    
C39   H13   S    
C20   O11   S    
C33   C36   A    
C1    O1    A    
C3    C29   A    
C29   H23   S    
C39   H11   S    
H5    N5    S    
O1    Zn1   S    
C17   O19   A    
C27   H25   S    
C36   N1    S    
C2    C34   A    
C40   C42   A    
C24   C41   A    
C41   C43   A    
C34   C41   A    
C14   O7    S    
C25   C44   A    
C19   C43   A    
O16   Zn1   S    
N4    Zn1   S    
C38   N5    S    
N3    Zn2   S    
C18   O9    S    
C12   O12   A    
C32   C35   A    
H15   O8    S    
C38   H7    S    
C12   C21   S    
C8    C18   A    
C23   C44   A    
C5    C9    A    
C43   H21   S    
C22   C40   A    
H19   O13   S    
C31   C33   A    
C2    C26   A    
C4    C32   A    
C39   N6    S    
O15   Zn1   S    
C3    C31   A    
C30   H22   S    
C25   N1    A    
C4    C17   S    
C24   O2    S    
C16   O16   A    
C7    C19   A    
C13   C15   A    
C9    C34   A    
C10   C23   A    
H9    N6    S    
C17   O17   A    
N3    N5    S    
C42   H20   S    
C22   N1    A    
C24   N2    A    
C26   N2    A    
C7    C9    A    
C1    C20   S    
C28   H24   S    
C35   H12   S    
C22   O20   S    
C6    C10   A    
C5    C8    A    
H16   O9    S    
O19   Zn1   S    
C15   O8    S    
C38   H6    S    
C27   C36   A    
C32   O6    S    
H18   O11   S    
C16   O18   A    
C26   O3    S    
C31   O5    S    
C28   C30   A    
H14   O7    S    
C6    C13   A    
C28   C37   A    
H4    O6    S    
H3    O5    S    
C2    C14   A    
O12   Zn2   S    
H17   O10   S    
C20   C21   D    
C8    C10   A    
C37   N2    S    
O17   Zn2   S    
O14   Zn2   S    
C4    C30   A    
C3    C16   S    
