data_str_m2_o10_o28_f0_pcu.sym.44
_audit_creation_date              2013-03-05T15:41:54-0500
_audit_creation_method            fapswitch 2.2
_symmetry_space_group_name_H-M    P1
_symmetry_Int_Tables_number       1
_space_group_crystal_system       triclinic
_cell_length_a                    23.520594
_cell_length_b                    8.67894
_cell_length_c                    7.509722
_cell_angle_alpha                 101.695665
_cell_angle_beta                  95.186932
_cell_angle_gamma                 92.735973
_cell_volume                      1491.57958554

loop_
_atom_site_label
_atom_site_type_symbol
_atom_site_description
_atom_site_fract_x
_atom_site_fract_y
_atom_site_fract_z
_atom_type_partial_charge
O1    O     O_R   0.504120 0.286130 0.619770 -0.594124
O2    O     O_R   0.495880 0.713870 0.380230 -0.576790
O3    O     O_R   0.493410 0.256770 0.308360 -0.612601
O4    O     O_R   0.506590 0.743230 0.691640 -0.639771
C1    C     C_R   0.496476 0.201088 0.456018 0.861518
C2    C     C_R   0.503926 0.798861 0.543890 0.868163
O5    O     O_R   0.423230 0.514630 0.655730 -0.607528
O6    O     O_R   0.576770 0.485370 0.344270 -0.579610
O7    O     O_R   0.412530 0.485280 0.344320 -0.542977
O8    O     O_R   0.587470 0.514720 0.655680 -0.583078
C3    C     C_R   0.391020 0.498674 0.500462 0.810878
C4    C     C_R   0.609037 0.505772 0.499675 0.825873
Cu1   Cu    Cu3+1 0.506340 0.517380 0.684380 0.984091
Cu2   Cu    Cu3+1 0.493660 0.482620 0.315620 1.022467
C5    C     C_R   0.882808 0.658285 0.499145 0.564856
C6    C     C_R   0.115968 0.391015 0.400715 0.550152
N1    N     N_R   0.851555 0.516511 0.459520 -0.468213
N2    N     N_R   0.147974 0.529079 0.469090 -0.469754
C7    C     C_R   0.877209 0.377316 0.416744 0.498566
C8    C     C_R   0.123427 0.667287 0.529013 0.523658
C9    C     C_R   0.936170 0.377300 0.392986 -0.094335
C10   C     C_R   0.063113 0.672843 0.512005 -0.104516
C11   C     C_R   0.969410 0.522907 0.448014 -0.003312
C12   C     C_R   0.029621 0.527866 0.450611 -0.002960
C13   C     C_R   0.942478 0.663700 0.502149 -0.043735
C14   C     C_R   0.056293 0.386978 0.393364 -0.033156
C15   C     C_R   0.963389 0.238433 0.321227 -0.021994
C16   C     C_R   0.034905 0.815083 0.558342 -0.017158
C17   C     C_R   0.023125 0.245220 0.326291 -0.100502
C18   C     C_R   0.975206 0.807520 0.555269 -0.062768
O9    O     O_2   0.856120 0.793698 0.536846 -0.499302
O10   O     O_2   0.142091 0.257686 0.341410 -0.521639
O11   O     O_2   0.845852 0.240635 0.403864 -0.518088
O12   O     O_2   0.157633 0.796269 0.609115 -0.515974
C19   C     C_R   0.239876 0.577957 0.347927 -0.005372
C20   C     C_R   0.752110 0.454883 0.311382 0.024185
C21   C     C_R   0.299252 0.567608 0.359895 -0.056958
C22   C     C_R   0.693304 0.451600 0.328154 -0.105798
C23   C     C_R   0.328266 0.505319 0.498765 -0.164651
C24   C     C_R   0.671902 0.513330 0.495213 -0.140810
C25   C     C_R   0.296714 0.451664 0.628996 -0.083506
C26   C     C_R   0.710880 0.581186 0.650000 -0.053557
C27   C     C_R   0.237552 0.466933 0.620026 -0.001005
C28   C     C_R   0.769722 0.574032 0.635475 -0.032172
C29   C     C_R   0.209126 0.527716 0.480466 0.220242
C30   C     C_R   0.790637 0.513703 0.468276 0.216767
C31   C     C_2   0.484827 0.036592 0.442631 -0.203738
C32   C     C_2   0.516073 0.963151 0.556680 -0.192865
N3    N     N_2   0.484110 0.456420 0.038520 -0.214418
N4    N     N_2   0.515890 0.543580 0.961480 -0.234774
C33   C     C_2   0.931189 0.088862 0.223883 0.462788
H1    H     H_    0.888161 0.089357 0.159054 0.136948
O13   O     O_2   0.953301 0.962971 0.208617 -0.557762
C34   C     C_2   0.065060 0.974539 0.598130 0.462166
H2    H     H_    0.102555 0.997623 0.531302 0.142539
O14   O     O_2   0.047035 0.084057 0.702308 -0.537093
H3    H     H_    0.043850 0.139048 0.273188 0.205193
H4    H     H_    0.954004 0.916092 0.591329 0.219563
C35   C     C_2   0.210122 0.637801 0.195186 0.468303
H5    H     H_    0.163899 0.640379 0.181012 0.068219
O15   O     O_2   0.236878 0.684801 0.082400 -0.499603
C36   C     C_2   0.772706 0.401192 0.129059 0.498525
H6    H     H_    0.817317 0.421438 0.109214 0.056118
O16   O     O_2   0.739912 0.334583 0.997611 -0.508727
H7    H     H_    0.323122 0.607603 0.259065 0.232083
H8    H     H_    0.663824 0.402498 0.208454 0.202817
C37   C     C_2   0.323265 0.367163 0.764210 0.466807
H9    H     H_    0.362548 0.310592 0.739735 0.113264
O17   O     O_2   0.300692 0.356056 0.901759 -0.501687
C38   C     C_2   0.692225 0.671112 0.822782 0.485197
H10   H     H_    0.651349 0.723450 0.824148 0.090426
O18   O     O_2   0.723422 0.692842 0.965925 -0.515477
H11   H     H_    0.212530 0.425100 0.717180 0.187203
H12   H     H_    0.800134 0.622005 0.753229 0.181398
C39   C     C_2   0.430771 0.968032 0.328007 0.333400
H13   H     H_    0.417273 0.012162 0.206708 0.135374
O19   O     O_2   0.399250 0.870023 0.373199 -0.530607
C40   C     C_2   0.570602 0.030615 0.669490 0.338232
H14   H     H_    0.585234 0.982713 0.787099 0.083041
O20   O     O_2   0.601168 0.132345 0.627181 -0.494955
C41   C     C_2   0.479292 0.294706 0.955546 0.722127
H15   H     H_    0.517187 0.235363 0.917212 0.024582
O21   O     O_2   0.434106 0.217346 0.946709 -0.597778
C42   C     C_2   0.530239 0.699719 0.057265 0.733585
H16   H     H_    0.498005 0.785532 0.067576 0.005844
O22   O     O_2   0.579515 0.740445 0.120820 -0.579959

loop_
_geom_bond_atom_site_label_1
_geom_bond_atom_site_label_2
_geom_bond_distance
_ccdc_geom_bond_type
C27   H11   1.084032 S    
C15   C17   1.400201 A    
C39   H13   1.085358 S    
C41   H15   1.082910 S    
N4    C42   1.408873 S    
C25   C37   1.479829 S    
O5    C3    1.310551 A    
C1    C31   1.422265 S    
C2    C32   1.422878 S    
O1    C1    1.291781 A    
C7    C9    1.414131 A    
C12   C14   1.407977 A    
C40   O20   1.221388 D    
C5    C13   1.400006 A    
Cu2   N3    2.037463 S    
C32   C40   1.495386 S    
C26   C38   1.486725 S    
C19   C35   1.485367 S    
N3    C41   1.410112 S    
O4    Cu1   1.949529 S    
C39   O19   1.220949 D    
C36   O16   1.221474 D    
C22   H8    1.083627 S    
C15   C33   1.488094 S    
C21   H7    1.083479 S    
C11   C12   1.413048 A    
C20   C30   1.410294 A    
C38   H10   1.082745 S    
C8    O12   1.347508 S    
C24   C26   1.420122 A    
C9    C15   1.423217 A    
C35   H5    1.084519 S    
C10   C16   1.425132 A    
Cu1   Cu2   2.711505 S    
C25   C27   1.400964 A    
O2    C2    1.291329 A    
C26   C28   1.401423 A    
C20   C36   1.486383 S    
C41   O21   1.218937 D    
C28   C30   1.400865 A    
C6    C14   1.398156 A    
C34   O14   1.221562 D    
C35   O15   1.221377 D    
C37   H9    1.079813 S    
N1    C30   1.439546 S    
O4    C2    1.294476 A    
C7    O11   1.348173 S    
C16   C34   1.485886 S    
C40   H14   1.085778 S    
C33   H1    1.083250 S    
C33   O13   1.221328 D    
C4    C24   1.480663 S    
C28   H12   1.083943 S    
O7    Cu2   1.940328 S    
C36   H6    1.084141 S    
O7    C3    1.304622 A    
C31   C32   1.353576 D    
O6    C4    1.308659 A    
C42   H16   1.084725 S    
C3    C23   1.478895 S    
C27   C29   1.398165 A    
O3    Cu2   1.949529 S    
O8    C4    1.307747 A    
C8    C10   1.416829 A    
C9    C11   1.419344 A    
C10   C12   1.421548 A    
O1    Cu1   1.963880 S    
C19   C29   1.407094 A    
N2    C29   1.433887 S    
C13   C18   1.400214 A    
C5    N1    1.366947 A    
C34   H2    1.083375 S    
O6    Cu2   1.945636 S    
C19   C21   1.399670 A    
C17   H3    1.083878 S    
O3    C1    1.294010 A    
O8    Cu1   1.940328 S    
C5    O9    1.350191 S    
C6    O10   1.350292 S    
C16   C18   1.400439 A    
C31   C39   1.494602 S    
C21   C23   1.407354 A    
C22   C24   1.407762 A    
C18   H4    1.084325 S    
C20   C22   1.399619 A    
N1    C7    1.368941 A    
N2    C8    1.367076 A    
C11   C13   1.406675 A    
O2    Cu2   1.963880 S    
Cu1   N4    2.037463 S    
O5    Cu1   1.945636 S    
C23   C25   1.416673 A    
C14   C17   1.400731 A    
C6    N2    1.364077 A    
N3    N4    1.291249 D    
C42   O22   1.220034 D    
C38   O18   1.221270 D    
C37   O17   1.221798 D    
