data_str_m9_o2_o16_f0_sra.sym.48
_audit_creation_date              2012-12-11T16:25:31-0500
_audit_creation_method            fapswitch 2.2
_symmetry_space_group_name_H-M    P1
_symmetry_Int_Tables_number       1
_space_group_crystal_system       triclinic
_cell_length_a                    20.445047
_cell_length_b                    7.273271
_cell_length_c                    13.242653
_cell_angle_alpha                 90.000167
_cell_angle_beta                  103.547996
_cell_angle_gamma                 89.999707
_cell_volume                      1914.41855647

loop_
_atom_site_label
_atom_site_type_symbol
_atom_type_description
_atom_site_fract_x
_atom_site_fract_y
_atom_site_fract_z
_atom_type_partial_charge
O1    O     O_R   0.449520 0.506760 0.599710 -0.546838
O2    O     O_R   0.550480 0.006760 0.400290 -0.546837
O3    O     O_R   0.587930 0.180200 0.595790 -0.537117
O4    O     O_R   0.412070 0.680200 0.404210 -0.537117
C1    C     C_R   0.614264 0.344619 0.618200 0.691510
C2    C     C_R   0.385736 0.844619 0.381800 0.691512
O5    O     O_R   0.452350 0.177380 0.611700 -0.526229
O6    O     O_R   0.547650 0.677380 0.388300 -0.526230
O7    O     O_R   0.413930 0.001760 0.416320 -0.538611
O8    O     O_R   0.586070 0.501760 0.583680 -0.538611
C3    C     C_R   0.435950 0.345143 0.638022 0.762923
C4    C     C_R   0.564050 0.845142 0.361979 0.762925
O9    O     O_3   0.487550 0.337460 0.435880 -0.380738
O10   O     O_3   0.512450 0.837460 0.564120 -0.380738
V1    V     V_3+5 0.502310 0.064670 0.511900 1.463263
V2    V     V_3+5 0.497690 0.564670 0.488100 1.463261
C5    C     C_R   0.604655 0.852381 0.097238 0.277246
C6    C     C_R   0.395345 0.352395 0.902762 0.277245
H1    H     H_    0.688901 0.931499 0.972564 0.135457
H2    H     H_    0.311097 0.431530 0.027434 0.135458
C7    C     C_R   0.601784 0.850965 0.279801 -0.150974
C8    C     C_R   0.398217 0.350969 0.720200 -0.150973
C9    C     C_R   0.924358 0.848208 0.316856 0.276764
C10   C     C_R   0.075643 0.348202 0.683144 0.276763
C11   C     C_R   0.888083 0.795279 0.389103 -0.264960
C12   C     C_R   0.111919 0.295276 0.610896 -0.264962
C13   C     C_R   0.818026 0.776529 0.360408 0.318965
C14   C     C_R   0.181976 0.276534 0.639592 0.318965
C15   C     C_R   0.782307 0.832710 0.259391 0.001124
C16   C     C_R   0.217693 0.332721 0.740609 0.001121
C17   C     C_R   0.819690 0.864567 0.181963 -0.102735
C18   C     C_R   0.180310 0.364579 0.818035 -0.102734
C19   C     C_R   0.710530 0.849642 0.231992 0.063471
C20   C     C_R   0.289470 0.349656 0.768008 0.063470
C21   C     C_R   0.676234 0.865642 0.126003 -0.057472
C22   C     C_R   0.323766 0.365660 0.873997 -0.057471
C23   C     C_R   0.713771 0.900003 0.051967 -0.230906
C24   C     C_R   0.286228 0.400028 0.948032 -0.230909
C25   C     C_R   0.784284 0.901390 0.078140 0.339656
C26   C     C_R   0.215715 0.401414 0.921857 0.339657
C27   C     C_R   0.671824 0.862382 0.307402 -0.239796
C28   C     C_R   0.328176 0.362391 0.692598 -0.239792
C29   C     C_R   0.568450 0.832630 0.175213 0.332792
C30   C     C_R   0.431549 0.332637 0.824788 0.332792
C31   C     C_R   0.891606 0.862027 0.211825 -0.125078
C32   C     C_R   0.108394 0.362027 0.788174 -0.125076
H3    H     H_    0.914900 0.765682 0.468172 0.154406
H4    H     H_    0.085102 0.265675 0.531829 0.154405
C33   C     C_R   0.230108 0.920192 0.034314 -0.109005
C34   C     C_R   0.769892 0.420182 0.965687 -0.109000
C35   C     C_R   0.285162 0.949272 0.991307 -0.126039
C36   C     C_R   0.714838 0.449256 0.008695 -0.126039
C37   C     C_R   0.349559 0.957501 0.055005 -0.122493
C38   C     C_R   0.650441 0.457488 0.944997 -0.122492
C39   C     C_R   0.359476 0.934370 0.162076 -0.123213
C40   C     C_R   0.640524 0.434362 0.837926 -0.123216
C41   C     C_R   0.305186 0.893747 0.207201 0.040566
C42   C     C_R   0.694814 0.393742 0.792800 0.040564
C43   C     C_R   0.238898 0.891150 0.142377 0.065851
C44   C     C_R   0.761102 0.391146 0.857623 0.065856
C45   C     C_R   0.316198 0.852501 0.314578 -0.154745
C46   C     C_R   0.683802 0.352500 0.685422 -0.154744
C47   C     C_R   0.260591 0.808908 0.356893 0.066693
C48   C     C_R   0.739409 0.308909 0.643106 0.066693
C49   C     C_R   0.194256 0.806866 0.292173 -0.028622
C50   C     C_R   0.805744 0.306867 0.707826 -0.028623
C51   C     C_R   0.183116 0.854627 0.185498 -0.142481
C52   C     C_R   0.816884 0.354627 0.814502 -0.142477
C53   C     C_R   0.269873 0.767335 0.463622 -0.162536
C54   C     C_R   0.730127 0.267337 0.536377 -0.162535
C55   C     C_R   0.215633 0.721339 0.505317 -0.193771
C56   C     C_R   0.784367 0.221342 0.494682 -0.193767
C57   C     C_R   0.150562 0.713472 0.441624 0.405316
C58   C     C_R   0.849438 0.213474 0.558374 0.405317
C59   C     C_R   0.140332 0.755113 0.335995 -0.129910
C60   C     C_R   0.859668 0.255115 0.664003 -0.129913
H5    H     H_    0.180893 0.916636 0.981621 0.115912
H6    H     H_    0.819107 0.416625 0.018379 0.115910
H7    H     H_    0.409938 0.947575 0.209428 0.153786
H8    H     H_    0.590062 0.447568 0.790574 0.153786
H9    H     H_    0.089750 0.745318 0.288354 0.159231
H10   H     H_    0.910250 0.245318 0.711644 0.159233
O11   O     O_R   0.913760 0.203480 0.916370 -0.526024
O12   O     O_R   0.086240 0.703480 0.083630 -0.526023
O13   O     O_R   0.047590 0.535230 0.888250 -0.528332
O14   O     O_R   0.952410 0.035230 0.111750 -0.528335
C61   C     C_R   0.065698 0.369086 0.863997 0.863752
C62   C     C_R   0.934302 0.869087 0.136003 0.863757
O15   O     O_R   0.912020 0.532880 0.904260 -0.534689
O16   O     O_R   0.087980 0.032880 0.095740 -0.534689
O17   O     O_R   0.949590 0.708460 0.099750 -0.548196
O18   O     O_R   0.050410 0.208460 0.900250 -0.548199
C63   C     C_R   0.886272 0.364304 0.881834 0.676685
C64   C     C_R   0.113728 0.864304 0.118165 0.676688
O19   O     O_3   0.012370 0.375360 0.064120 -0.380656
O20   O     O_3   0.987630 0.875360 0.935880 -0.380655
V3    V     V_3+5 0.997700 0.648160 0.988110 1.503780
V4    V     V_3+5 0.002300 0.148160 0.011890 1.503776
O21   O     O_3   0.500473 0.794563 0.151595 -0.662256
H11   H     H_    0.485431 0.759140 0.077598 0.340655
O22   O     O_3   0.499527 0.294565 0.848407 -0.662256
H12   H     H_    0.514569 0.259153 0.922406 0.340652
H13   H     H_    0.277719 0.967836 0.908267 0.131143
H14   H     H_    0.722281 0.467816 0.091736 0.131142
H15   H     H_    0.391988 0.982591 0.021116 0.153620
H16   H     H_    0.608012 0.482576 0.978887 0.153614
H17   H     H_    0.319117 0.770146 0.516252 0.129011
H18   H     H_    0.680882 0.270148 0.483747 0.129010
H19   H     H_    0.224550 0.689949 0.587372 0.122381
H20   H     H_    0.775450 0.189952 0.412626 0.122380
O23   O     O_3   0.568136 0.861144 0.995259 -0.650791
H21   H     H_    0.594437 0.806292 0.949241 0.292106
O24   O     O_3   0.431862 0.361158 0.004742 -0.650795
H22   H     H_    0.405561 0.306311 0.050759 0.292106
H23   H     H_    0.694893 0.885041 0.388458 0.181197
H24   H     H_    0.305108 0.385049 0.611542 0.181197
O25   O     O_3   0.992324 0.884053 0.347008 -0.650859
H25   H     H_    0.004861 0.898593 0.423574 0.332332
O26   O     O_3   0.007676 0.384040 0.652991 -0.650859
H26   H     H_    0.995140 0.398584 0.576425 0.332333
O27   O     O_3   0.784862 0.692692 0.427822 -0.650425
H27   H     H_    0.817471 0.659940 0.493399 0.299065
O28   O     O_3   0.215141 0.192697 0.572179 -0.650424
H28   H     H_    0.182533 0.159939 0.506602 0.299065
O29   O     O_3   0.818859 0.939405 0.002434 -0.648682
H29   H     H_    0.786802 0.961442 0.934749 0.287721
O30   O     O_3   0.181140 0.439437 0.997562 -0.648682
H30   H     H_    0.213195 0.461489 0.065245 0.287722
O31   O     O_3   0.096039 0.664993 0.480325 -0.648985
H31   H     H_    0.110304 0.660898 0.557182 0.285783
O32   O     O_3   0.903960 0.164994 0.519673 -0.648985
H32   H     H_    0.889695 0.160901 0.442815 0.285783

loop_
_geom_bond_atom_site_label_1
_geom_bond_atom_site_label_2
_ccdc_geom_bond_type
C42   C46   A    
C50   C52   A    
C47   C49   A    
O22   H12   S    
C25   O29   S    
C15   C19   A    
C13   C15   A    
O23   H21   S    
O1    C3    A    
O2    C4    A    
C2    O7    A    
C13   O27   S    
O19   V4    S    
O18   V4    S    
O28   H28   S    
O5    C3    A    
C58   C60   A    
C9    C31   A    
O12   V3    S    
C2    C45   S    
C21   C23   A    
C10   C12   A    
O24   H22   S    
O14   C62   A    
C41   C43   A    
C35   H13   S    
O11   C63   A    
C5    O23   S    
C39   H7    S    
C53   C55   A    
C45   C47   A    
C46   C48   A    
H1    C23   S    
C43   C51   A    
C7    C29   A    
C8    C30   A    
C47   C53   A    
C33   H5    S    
C33   C35   A    
O11   V4    S    
C20   C28   A    
C51   C64   S    
C34   C36   A    
C30   O22   S    
C48   C54   A    
C40   C42   A    
C11   H3    S    
C12   H4    S    
O5    V1    S    
O6    V2    S    
C24   C26   A    
C61   O18   A    
C57   C59   A    
C27   H23   S    
C34   H6    S    
C6    O24   S    
C36   C38   A    
O16   C64   A    
C42   C44   A    
C56   H20   S    
C37   C39   A    
C53   H17   S    
C38   C40   A    
C14   O28   S    
C16   C20   A    
O13   C61   A    
C31   C62   S    
C56   C58   A    
C60   H10   S    
C55   C57   A    
C38   H16   S    
O31   H31   S    
C59   H9    S    
C49   C51   A    
C26   O30   S    
C4    C7    S    
O15   V3    S    
C35   C37   A    
C48   C50   A    
O4    V2    S    
C5    C29   A    
C6    C30   A    
H2    C24   S    
O21   H11   S    
C62   O17   A    
O6    C4    A    
C50   C60   A    
O20   V3    S    
O1    V2    S    
O12   C64   A    
O16   V4    S    
O17   V3    S    
O2    V1    S    
O27   H27   S    
C7    C27   A    
O4    C2    A    
C39   C41   A    
O29   H29   S    
O32   H32   S    
O3    V1    S    
C32   C61   S    
C28   H24   S    
C36   H14   S    
C10   O26   S    
C18   C32   A    
C29   O21   S    
O3    C1    A    
C33   C43   A    
C9    O25   S    
O26   H26   S    
C41   C45   A    
C11   C13   A    
C3    C8    S    
C12   C14   A    
C52   C63   S    
C40   H8    S    
C34   C44   A    
C22   C24   A    
O7    V1    S    
C19   C27   A    
C1    O8    A    
C15   C17   A    
O8    V2    S    
O25   H25   S    
C16   C18   A    
C8    C28   A    
C57   O31   S    
C55   H19   S    
C14   C16   A    
C19   C21   A    
C17   C25   A    
C1    C46   S    
C20   C22   A    
C18   C26   A    
O15   C63   A    
O14   V4    S    
O13   V3    S    
C37   H15   S    
C9    C11   A    
C44   C52   A    
C23   C25   A    
C17   C31   A    
O9    V2    S    
O10   V1    S    
C54   C56   A    
C5    C21   A    
C58   O32   S    
C6    C22   A    
C54   H18   S    
C49   C59   A    
O30   H30   S    
C10   C32   A    
