data_str_m2_o9_o13_f0_pcu.sym.129
_audit_creation_date              2012-12-10T19:42:54-0500
_audit_creation_method            fapswitch 2.2
_symmetry_space_group_name_H-M    P1
_symmetry_Int_Tables_number       1
_space_group_crystal_system       triclinic
_cell_length_a                    10.862878
_cell_length_b                    13.015328
_cell_length_c                    11.667684
_cell_angle_alpha                 99.471739
_cell_angle_beta                  94.845592
_cell_angle_gamma                 90.633241
_cell_volume                      1620.79537198

loop_
_atom_site_label
_atom_site_type_symbol
_atom_type_description
_atom_site_fract_x
_atom_site_fract_y
_atom_site_fract_z
_atom_type_partial_charge
C1    C     C_R   0.502141 0.299691 0.479454 0.869774
C2    C     C_R   0.499734 0.700485 0.520880 0.853483
C3    C     C_R   0.871893 0.505732 0.502900 -0.085672
C4    C     C_R   0.127982 0.496683 0.497014 -0.090847
C5    C     C_R   0.949875 0.544735 0.604204 -0.006791
C6    C     C_R   0.049888 0.458658 0.395483 -0.009670
C7    C     C_R   0.502913 0.813333 0.532801 -0.130625
C8    C     C_R   0.490979 0.187705 0.470521 -0.118691
C9    C     C_R   0.364013 0.033150 0.399999 0.272810
C10   C     C_R   0.605195 0.974412 0.627138 0.276142
C11   C     C_R   0.390541 0.137817 0.401465 -0.341810
C12   C     C_R   0.584957 0.868166 0.619716 -0.340830
C13   C     C_R   0.569418 0.134043 0.540921 0.206766
C14   C     C_R   0.429713 0.865278 0.456236 0.213032
C15   C     C_R   0.540782 0.028350 0.545415 -0.030350
C16   C     C_R   0.443430 0.974974 0.466478 -0.027017
C17   C     C_R   0.425898 0.376780 0.019925 -0.342368
C18   C     C_R   0.574391 0.623129 0.980065 -0.338685
C19   C     C_R   0.427925 0.391533 0.142269 0.114961
C20   C     C_R   0.572324 0.608346 0.857723 0.116221
C21   C     C_R   0.525637 0.557228 0.158002 0.020356
C22   C     C_R   0.473852 0.443016 0.842009 -0.000518
C23   C     C_R   0.261979 0.497047 0.498737 0.788284
C24   C     C_R   0.737956 0.503699 0.501312 0.795078
C25   C     C_R   0.525309 0.545760 0.034937 0.063977
C26   C     C_R   0.474685 0.454279 0.965078 0.068479
C27   C     C_R   0.112349 0.404114 0.078395 -0.133116
C28   C     C_R   0.894137 0.606702 0.922731 -0.133293
C29   C     C_R   0.089608 0.458324 0.188019 -0.135681
C30   C     C_R   0.917717 0.550545 0.814314 -0.141583
C31   C     C_R   0.093784 0.406622 0.284789 0.146610
C32   C     C_R   0.905575 0.598016 0.714319 0.149075
C33   C     C_R   0.121432 0.300541 0.270888 -0.149680
C34   C     C_R   0.868615 0.701853 0.723845 -0.148730
C35   C     C_R   0.143699 0.246458 0.161066 -0.169946
C36   C     C_R   0.846433 0.758109 0.832703 -0.180408
C37   C     C_R   0.138144 0.298000 0.064722 -0.129890
C38   C     C_R   0.859930 0.710777 0.932117 -0.123934
C39   C     C_R   0.922981 0.463969 0.399873 -0.233569
C40   C     C_R   0.076919 0.538994 0.599934 -0.239108
Cu1   Cu    Cu3+1 0.509250 0.507730 0.615930 0.931869
Cu2   Cu    Cu3+1 0.490750 0.492270 0.384070 0.941721
H1    H     H_    0.154541 0.255875 0.979617 0.119370
H2    H     H_    0.843080 0.754547 0.016297 0.118595
H3    H     H_    0.431626 0.374060 0.787885 0.119856
H4    H     H_    0.566930 0.626586 0.212122 0.125481
H5    H     H_    0.608587 0.669475 0.816955 0.141777
H6    H     H_    0.391326 0.330433 0.182975 0.142979
H7    H     H_    0.387186 0.304928 0.968755 0.130648
H8    H     H_    0.613257 0.694937 0.031196 0.130979
H9    H     H_    0.108565 0.443990 0.003807 0.127221
H10   H     H_    0.904019 0.570041 0.999708 0.125882
H11   H     H_    0.065843 0.539701 0.197070 0.112866
H12   H     H_    0.948124 0.471009 0.808569 0.114795
H13   H     H_    0.121503 0.259235 0.344205 0.112695
H14   H     H_    0.861138 0.740084 0.647880 0.109242
H15   H     H_    0.163812 0.164367 0.150346 0.122496
H16   H     H_    0.819702 0.838609 0.840287 0.125999
H17   H     H_    0.863642 0.432302 0.322275 0.166573
H18   H     H_    0.136388 0.570729 0.677407 0.166127
H19   H     H_    0.637080 0.827498 0.680961 0.162530
H20   H     H_    0.328282 0.182032 0.352045 0.156947
N1    N     N_R   0.523180 0.519350 0.790130 -0.184929
N2    N     N_R   0.476820 0.480650 0.209870 -0.184684
O1    O     O_R   0.506570 0.354460 0.582000 -0.590446
O2    O     O_R   0.493430 0.645540 0.418000 -0.569455
O3    O     O_R   0.490940 0.341410 0.386200 -0.601951
O4    O     O_R   0.509060 0.658590 0.613800 -0.603879
O5    O     O_R   0.327460 0.506540 0.597900 -0.584635
O6    O     O_R   0.672540 0.493460 0.402100 -0.589253
O7    O     O_R   0.311830 0.493480 0.402100 -0.581227
O8    O     O_R   0.688170 0.506520 0.597900 -0.583449
N3    N     N_2   0.353441 0.805316 0.362539 -0.404489
H21   H     H_    0.352638 0.825538 0.280709 0.259837
C41   C     C_3   0.242888 0.754349 0.389903 -0.617610
H22   H     H_    0.241161 0.671341 0.348534 0.237563
H23   H     H_    0.238933 0.759075 0.485546 0.202654
H24   H     H_    0.159549 0.790399 0.353667 0.224162
N4    N     N_2   0.687385 0.180375 0.586360 -0.436709
H25   H     H_    0.762200 0.133208 0.572510 0.250545
C42   C     C_3   0.696184 0.249839 0.697698 -0.568960
H26   H     H_    0.767417 0.222751 0.759153 0.212064
H27   H     H_    0.606853 0.254157 0.737819 0.227532
H28   H     H_    0.725638 0.328763 0.685168 0.237463
N5    N     N_2   0.249838 0.991173 0.341436 -0.424203
H29   H     H_    0.230539 0.013584 0.261160 0.237532
C43   C     C_3   0.146613 0.007628 0.412497 -0.701090
H30   H     H_    0.062133 0.968996 0.363057 0.216307
H31   H     H_    0.129736 0.092250 0.435953 0.216012
H32   H     H_    0.165096 0.973659 0.493449 0.242537
N6    N     N_2   0.685181 0.026599 0.721980 -0.421380
H33   H     H_    0.768276 0.990215 0.732612 0.235409
C44   C     C_3   0.627388 0.049901 0.830283 -0.705766
H34   H     H_    0.692550 0.097006 0.897652 0.222032
H35   H     H_    0.602850 0.976719 0.861502 0.218724
H36   H     H_    0.542696 0.095455 0.818219 0.234860

loop_
_geom_bond_atom_site_label_1
_geom_bond_atom_site_label_2
_ccdc_geom_bond_type
C33   H13   S    
C43   H30   S    
C13   N4    S    
C34   H14   S    
C44   H34   S    
C40   H18   S    
C27   C29   A    
C1    C8    S    
Cu1   Cu2   S    
C23   O5    A    
C2    C7    S    
C11   H20   S    
C42   H26   S    
C24   O6    A    
N5    H29   S    
C30   H12   S    
C24   O8    A    
C8    C13   A    
C17   C26   A    
C35   C37   A    
C9    C16   A    
C2    O4    A    
C10   C15   A    
C33   C35   A    
C15   C16   A    
Cu2   O6    S    
N3    H21   S    
C21   N2    A    
C9    N5    S    
C22   N1    A    
C7    C14   A    
C4    C40   A    
C1    O1    A    
C31   C33   A    
C34   C36   A    
C5    C32   S    
C6    C31   S    
C3    C39   A    
C44   H35   S    
N3    C41   S    
C3    C24   S    
C18   C25   A    
C42   H27   S    
C27   H9    S    
Cu1   O4    S    
N5    C43   S    
C7    C12   A    
C14   N3    S    
C23   O7    A    
C4    C6    A    
C17   H7    S    
N6    H33   S    
N4    C42   S    
C4    C23   S    
C19   H6    S    
Cu1   O1    S    
C3    C5    A    
C25   C26   A    
C32   C34   A    
C37   H1    S    
C41   H22   S    
C38   H2    S    
N6    C44   S    
C41   H23   S    
C28   C38   A    
C19   N2    A    
C39   H17   S    
C9    C11   A    
C10   C12   A    
Cu1   O8    S    
C10   N6    S    
C44   H36   S    
C13   C15   A    
Cu2   O3    S    
C14   C16   A    
C5    C40   A    
Cu1   N1    S    
Cu2   N2    S    
C42   H28   S    
C18   H8    S    
Cu1   O5    S    
C21   H4    S    
C21   C25   A    
C2    O2    A    
C1    O3    A    
C36   H16   S    
C35   H15   S    
C20   N1    A    
C36   C38   A    
C29   C31   A    
C30   C32   A    
C12   H19   S    
C28   H10   S    
C29   H11   S    
C27   C37   A    
C8    C11   A    
C28   C30   A    
Cu2   O7    S    
C17   C19   A    
C18   C20   A    
C41   H24   S    
C20   H5    S    
N4    H25   S    
C22   H3    S    
C22   C26   A    
C43   H32   S    
Cu2   O2    S    
C43   H31   S    
C6    C39   A    
